Auto-Transcript Start Time:  10:51:45, 19 Jan 2024 W. Europe Standard Time 
Current Directory: "C:\Users\apaolino\code\element_cfd-simulation\simulations\ironcub-automatic-cfd\auto-cfd-sim-py\log"
Information: The server has started and is running.

              Welcome to ANSYS Fluent 2023 R2

              Copyright 1987-2023 ANSYS, Inc. All Rights Reserved.
              Unauthorized use, distribution or duplication is prohibited.
              This product is subject to U.S. laws governing export and re-export.
              For full Legal Notice, see documentation.

Build Time: May 29 2023 07:52:07 EDT  Build Id: 10212  
 
Connected License Server List:	1055@iitlicwge012.iit.local

     --------------------------------------------------------------
     This is an academic version of ANSYS FLUENT. Usage of this product
     license is limited to the terms and conditions specified in your ANSYS
     license form, additional terms section.
     --------------------------------------------------------------
Host spawning Node 0 on machine "IITBMP014LW001" (win64).
GPU Solver enabled

--------------------------------------------------------------------------------------------
ID    Hostname        Core   O.S.         PID     Vendor                                   
--------------------------------------------------------------------------------------------
n15   IITBMP014LW001  16/24  Windows-x64  209872  12th Gen Intel(R) Core(TM) i9-12950HX    
n14   IITBMP014LW001  15/24  Windows-x64  52020   12th Gen Intel(R) Core(TM) i9-12950HX    
n13   IITBMP014LW001  14/24  Windows-x64  100180  12th Gen Intel(R) Core(TM) i9-12950HX    
n12   IITBMP014LW001  13/24  Windows-x64  104520  12th Gen Intel(R) Core(TM) i9-12950HX    
n11   IITBMP014LW001  12/24  Windows-x64  185248  12th Gen Intel(R) Core(TM) i9-12950HX    
n10   IITBMP014LW001  11/24  Windows-x64  171540  12th Gen Intel(R) Core(TM) i9-12950HX    
n9    IITBMP014LW001  10/24  Windows-x64  94584   12th Gen Intel(R) Core(TM) i9-12950HX    
n8    IITBMP014LW001  9/24   Windows-x64  111296  12th Gen Intel(R) Core(TM) i9-12950HX    
n7    IITBMP014LW001  8/24   Windows-x64  98084   12th Gen Intel(R) Core(TM) i9-12950HX    
n6    IITBMP014LW001  7/24   Windows-x64  167020  12th Gen Intel(R) Core(TM) i9-12950HX    
n5    IITBMP014LW001  6/24   Windows-x64  206352  12th Gen Intel(R) Core(TM) i9-12950HX    
n4    IITBMP014LW001  5/24   Windows-x64  18380   12th Gen Intel(R) Core(TM) i9-12950HX    
n3    IITBMP014LW001  4/24   Windows-x64  199792  12th Gen Intel(R) Core(TM) i9-12950HX    
n2    IITBMP014LW001  3/24   Windows-x64  145832  12th Gen Intel(R) Core(TM) i9-12950HX    
n1    IITBMP014LW001  2/24   Windows-x64  111016  12th Gen Intel(R) Core(TM) i9-12950HX    
n0*   IITBMP014LW001  1/24   Windows-x64  96768   12th Gen Intel(R) Core(TM) i9-12950HX    
host  IITBMP014LW001         Windows-x64  30256   12th Gen Intel(R) Core(TM) i9-12950HX    

MPI Option Selected: intel
Selected system interconnect: default
--------------------------------------------------------------------------------------------

Cleanup script file is C:\\Users\\apaolino\\code\\element_cfd-simulation\\simulations\\ironcub-automatic-cfd\\auto-cfd-sim-py\\log\\cleanup-fluent-IITBMP014LW001-30256.bat

> Fast-loading "C:\PROGRA~1\ANSYSI~1\v232\fluent\fluent23.2.0\\addons\afd\lib\hdfio.bin"
Done.

Reading from IITBMP014LW001:"C:\Users\apaolino\code\element_cfd-simulation\simulations\ironcub-automatic-cfd\auto-cfd-sim-py\case\hovering.cas.h5" in NODE0 mode ...
  Reading mesh ...
      319093 cells,     1 cell zone  ...
         319093 mixed cells,  zone id: 13898
     1504591 faces,    25 face zones ...
           1989 polygonal wall faces,  zone id: 147
           1573 polygonal wall faces,  zone id: 227
            744 polygonal wall faces,  zone id: 249
            752 polygonal wall faces,  zone id: 175
           1567 polygonal wall faces,  zone id: 229
           1627 polygonal wall faces,  zone id: 238
            253 polygonal wall faces,  zone id: 157
            252 polygonal wall faces,  zone id: 231
           3413 polygonal wall faces,  zone id: 228
           3377 polygonal wall faces,  zone id: 236
           2746 polygonal wall faces,  zone id: 156
           2768 polygonal wall faces,  zone id: 155
           2950 polygonal wall faces,  zone id: 250
           2964 polygonal wall faces,  zone id: 176
            145 polygonal wall faces,  zone id: 223
           8638 polygonal wall faces,  zone id: 214
            122 polygonal wall faces,  zone id: 226
            628 polygonal wall faces,  zone id: 173
            631 polygonal wall faces,  zone id: 242
            363 polygonal wall faces,  zone id: 152
            119 polygonal wall faces,  zone id: 233
            242 polygonal wall faces,  zone id: 253
            249 polygonal wall faces,  zone id: 247
            405 polygonal velocity-inlet faces,  zone id: 177
        1466074 mixed interior faces,  zone id: 13900
      981222 nodes,     1 node zone  ...
  Done.


Building...
     mesh
	distributing mesh
		parts................,
		faces................,
		nodes................,
		cells................,
        bandwidth reduction using Reverse Cuthill-McKee: 23709/1912 = 12.4001
     materials,
     interface,
     domains,
	mixture
     zones,
	ironcub_head
	ironcub_left_arm
	ironcub_left_leg_upper
	ironcub_right_leg_upper
	ironcub_right_arm
	ironcub_root_link
	ironcub_left_arm_pitch
	ironcub_right_arm_pitch
	ironcub_left_turbine
	ironcub_right_turbine
	ironcub_right_back_turbine
	ironcub_left_back_turbine
	ironcub_left_leg_lower
	ironcub_right_leg_lower
	ironcub_torso_roll
	ironcub_torso
	ironcub_left_arm_roll
	ironcub_right_leg_pitch
	ironcub_left_leg_pitch
	ironcub_torso_pitch
	ironcub_right_arm_roll
	ironcub_right_leg_roll
	ironcub_left_leg_roll
	inlet
	interior--fluid:0
	fluid:0
     parallel,
Done.

GPU solver defaults are activated for the following unsupported settings (4)
=========================================================================================
Area                   Settings                         From                   To        
-----------------------------------------------------------------------------------------
solver                 warped face gradient correction  on                     off       
solver                 residual scaling                 global                 local     
hybrid initialization  averaged turbulent parameters    enabled                disabled  
initialization         reference frame                  relative to cell zone  absolute  

318460 cells marked

 Separates zone 177 into 2 zones.
Updating new zone information...
   created new zone inlet:001 from inlet
done.
Preparing GPU solver, please wait ...
--------------------------------------------------------------------------------------------------------------------------------
Rank  PID     Core  OS     Host            Device  Name                         Version  Memory(GB)  Bandwidth(GB/s)  Cores     
--------------------------------------------------------------------------------------------------------------------------------
0     96768   1/24  win64  IITBMP014LW001  0/1     NVIDIA RTX A4500 Laptop GPU  8.6      15.9995     488.342          46x128    
1     111016  1/24  win64  IITBMP014LW001  0/1     NVIDIA RTX A4500 Laptop GPU  8.6      15.9995     488.342          46x128    
2     145832  1/24  win64  IITBMP014LW001  0/1     NVIDIA RTX A4500 Laptop GPU  8.6      15.9995     488.342          46x128    
3     199792  1/24  win64  IITBMP014LW001  0/1     NVIDIA RTX A4500 Laptop GPU  8.6      15.9995     488.342          46x128    
4     18380   1/24  win64  IITBMP014LW001  0/1     NVIDIA RTX A4500 Laptop GPU  8.6      15.9995     488.342          46x128    
5     206352  1/24  win64  IITBMP014LW001  0/1     NVIDIA RTX A4500 Laptop GPU  8.6      15.9995     488.342          46x128    
6     167020  1/24  win64  IITBMP014LW001  0/1     NVIDIA RTX A4500 Laptop GPU  8.6      15.9995     488.342          46x128    
7     98084   1/24  win64  IITBMP014LW001  0/1     NVIDIA RTX A4500 Laptop GPU  8.6      15.9995     488.342          46x128    
8     111296  1/24  win64  IITBMP014LW001  0/1     NVIDIA RTX A4500 Laptop GPU  8.6      15.9995     488.342          46x128    
9     94584   1/24  win64  IITBMP014LW001  0/1     NVIDIA RTX A4500 Laptop GPU  8.6      15.9995     488.342          46x128    
10    171540  1/24  win64  IITBMP014LW001  0/1     NVIDIA RTX A4500 Laptop GPU  8.6      15.9995     488.342          46x128    
11    185248  1/24  win64  IITBMP014LW001  0/1     NVIDIA RTX A4500 Laptop GPU  8.6      15.9995     488.342          46x128    
12    104520  1/24  win64  IITBMP014LW001  0/1     NVIDIA RTX A4500 Laptop GPU  8.6      15.9995     488.342          46x128    
13    100180  1/24  win64  IITBMP014LW001  0/1     NVIDIA RTX A4500 Laptop GPU  8.6      15.9995     488.342          46x128    
14    52020   1/24  win64  IITBMP014LW001  0/1     NVIDIA RTX A4500 Laptop GPU  8.6      15.9995     488.342          46x128    
15    209872  1/24  win64  IITBMP014LW001  0/1     NVIDIA RTX A4500 Laptop GPU  8.6      15.9995     488.342          46x128    
--------------------------------------------------------------------------------------------------------------------------------
Bandwidth : 11.063 GB/s
Latency   : 0.41625 usec

Using uniform initializer ...

Non-released features (1)
**************************
Feature         Exposure  
--------------------------
Coupled solver  Beta      

Done

  iter  continuity  x-velocity  y-velocity  z-velocity           k       omega     time/iter
     1  6.7672e-02  1.1038e-04  1.0423e-04  5.7607e-03  1.6319e-02  2.0086e-03  0:00:00  999
     2  1.4383e-02  2.4187e-02  2.5580e-02  6.9733e-02  6.8395e-02  1.6140e-03  0:49:54  998
     3  5.5195e-03  2.4091e-02  2.4901e-02  7.1114e-02  2.8591e-02  9.3393e-04  0:16:37  997
     4  2.1921e-03  2.2331e-02  2.3350e-02  7.6575e-02  1.8298e-02  8.8812e-04  0:16:36  996
     5  2.9561e-03  1.8785e-02  1.9326e-02  6.4970e-02  1.5015e-02  9.0162e-04  0:00:00  995
     6  3.3029e-03  1.7318e-02  1.8143e-02  6.3465e-02  1.5113e-02  9.8799e-04  0:16:34  994
     7  3.2771e-03  1.4543e-02  1.5124e-02  4.9248e-02  1.5970e-02  9.9786e-04  0:00:00  993
     8  2.9256e-03  1.4695e-02  1.5194e-02  8.3841e-02  1.2612e-02  9.5909e-04  0:16:32  992
     9  2.8503e-03  1.1404e-02  1.2262e-02  4.1434e-02  8.2254e-03  8.6183e-04  0:16:31  991
    10  2.3650e-03  1.0290e-02  1.1167e-02  2.4455e-02  7.4566e-03  7.3618e-04  0:00:00  990
    11  1.8161e-03  9.2950e-03  1.0034e-02  1.9449e-02  7.0818e-03  6.5353e-04  0:16:29  989

  iter  continuity  x-velocity  y-velocity  z-velocity           k       omega     time/iter
    12  1.3887e-03  8.5091e-03  9.1368e-03  1.6633e-02  7.1245e-03  5.8095e-04  0:00:00  988
    13  1.1661e-03  8.0383e-03  8.5564e-03  1.5039e-02  5.8464e-03  5.1967e-04  0:16:27  987
    14  1.0368e-03  7.6336e-03  8.0981e-03  1.3871e-02  5.0828e-03  4.6628e-04  0:00:00  986
    15  9.3915e-04  7.2147e-03  7.6499e-03  1.2831e-02  5.8361e-03  4.1914e-04  0:16:25  985
    16  8.5619e-04  6.8119e-03  7.2607e-03  1.1953e-02  5.5081e-03  3.8332e-04  0:16:24  984
    17  7.7715e-04  6.4135e-03  6.8795e-03  1.1223e-02  5.3953e-03  3.5402e-04  0:00:00  983
    18  7.0422e-04  6.0505e-03  6.4998e-03  1.0545e-02  5.0341e-03  3.2964e-04  0:16:22  982
    19  6.3794e-04  5.7769e-03  6.1800e-03  9.9287e-03  4.7317e-03  3.1050e-04  0:00:00  981
    20  5.7894e-04  5.5700e-03  5.9235e-03  9.4064e-03  4.2216e-03  2.9768e-04  0:16:20  980
    21  5.2913e-04  5.4057e-03  5.6680e-03  8.9436e-03  4.0130e-03  2.8660e-04  0:00:00  979
    22  4.9045e-04  5.2681e-03  5.4696e-03  8.5981e-03  3.9821e-03  2.8039e-04  0:16:18  978

  iter  continuity  x-velocity  y-velocity  z-velocity           k       omega     time/iter
    23  4.6256e-04  5.1292e-03  5.2970e-03  8.3360e-03  3.9601e-03  2.6943e-04  0:16:17  977
    24  4.4422e-04  5.0057e-03  5.1499e-03  8.0682e-03  3.8930e-03  2.6339e-04  0:00:00  976
    25  4.3307e-04  4.9111e-03  5.0679e-03  7.8548e-03  4.0393e-03  2.5172e-04  0:16:15  975
    26  4.2896e-04  4.8196e-03  5.0111e-03  7.6880e-03  4.1407e-03  2.4962e-04  0:00:00  974
    27  4.3073e-04  4.7500e-03  4.9485e-03  7.4938e-03  3.5061e-03  2.4670e-04  0:16:13  973
    28  4.3527e-04  4.6869e-03  4.9205e-03  7.2756e-03  3.2301e-03  2.4378e-04  0:16:12  972
    29  4.3637e-04  4.5712e-03  4.8393e-03  6.9704e-03  3.0920e-03  2.3695e-04  0:00:00  971
    30  4.2789e-04  4.4719e-03  4.6836e-03  6.6505e-03  3.0709e-03  2.3319e-04  0:16:10  970
    31  4.1810e-04  4.3783e-03  4.5020e-03  6.3551e-03  3.0992e-03  2.2949e-04  0:00:00  969
    32  4.0638e-04  4.2375e-03  4.3096e-03  6.1188e-03  3.1901e-03  2.2466e-04  0:16:08  968
    33  3.9442e-04  4.1385e-03  4.1277e-03  5.9292e-03  3.0175e-03  2.1891e-04  0:16:07  967

  iter  continuity  x-velocity  y-velocity  z-velocity           k       omega     time/iter
    34  3.8320e-04  4.0353e-03  3.9853e-03  5.7539e-03  3.0292e-03  2.1282e-04  0:00:00  966
    35  3.7147e-04  3.8826e-03  3.8187e-03  5.5528e-03  3.2086e-03  2.0660e-04  0:16:05  965
    36  3.5969e-04  3.7595e-03  3.6705e-03  5.3663e-03  3.4925e-03  1.9958e-04  0:16:04  964
    37  3.4789e-04  3.6601e-03  3.5509e-03  5.1884e-03  3.5783e-03  1.9287e-04  0:00:00  963
    38  3.3581e-04  3.5551e-03  3.4594e-03  4.9861e-03  3.6765e-03  1.9193e-04  0:16:02  962
    39  3.2492e-04  3.4509e-03  3.3486e-03  4.8031e-03  3.5595e-03  1.9190e-04  0:00:00  961
    40  3.1430e-04  3.3316e-03  3.2375e-03  4.6500e-03  3.4646e-03  1.8379e-04  0:16:00  960
    41  3.0303e-04  3.2256e-03  3.1229e-03  4.5187e-03  3.4471e-03  1.7707e-04  0:15:59  959
    42  2.9166e-04  3.1382e-03  3.0136e-03  4.3886e-03  3.0241e-03  1.7695e-04  0:00:00  958
    43  2.8015e-04  3.0449e-03  2.9109e-03  4.2609e-03  2.7932e-03  1.7483e-04  0:15:57  957
    44  2.7019e-04  2.9498e-03  2.8291e-03  4.1524e-03  2.7422e-03  1.7660e-04  0:00:00  956

  iter  continuity  x-velocity  y-velocity  z-velocity           k       omega     time/iter
    45  2.6169e-04  2.8834e-03  2.7697e-03  4.0454e-03  2.8206e-03  1.7431e-04  0:15:55  955
    46  2.5473e-04  2.8204e-03  2.7162e-03  3.9145e-03  3.0270e-03  1.6127e-04  0:15:54  954
    47  2.4909e-04  2.7627e-03  2.6579e-03  3.7868e-03  3.0693e-03  1.6003e-04  0:00:00  953
    48  2.4479e-04  2.7073e-03  2.6229e-03  3.6837e-03  2.6455e-03  1.5211e-04  0:15:52  952
    49  2.4141e-04  2.6622e-03  2.5825e-03  3.6048e-03  2.2949e-03  1.5093e-04  0:00:00  951
    50  2.3929e-04  2.6210e-03  2.5423e-03  3.5342e-03  2.0375e-03  1.4847e-04  0:15:50  950
    51  2.3817e-04  2.5587e-03  2.4930e-03  3.4765e-03  1.8688e-03  1.4455e-04  0:15:49  949
    52  2.3561e-04  2.4819e-03  2.4172e-03  3.4192e-03  1.7732e-03  1.4349e-04  0:00:00  948
    53  2.3072e-04  2.4076e-03  2.3485e-03  3.3587e-03  1.7332e-03  1.3994e-04  0:15:47  947
    54  2.2564e-04  2.3286e-03  2.2828e-03  3.2906e-03  1.6948e-03  1.4069e-04  0:15:46  946
    55  2.1952e-04  2.2376e-03  2.2148e-03  3.1927e-03  1.6811e-03  1.3266e-04  0:00:00  945

  iter  continuity  x-velocity  y-velocity  z-velocity           k       omega     time/iter
    56  2.1307e-04  2.1518e-03  2.1551e-03  3.0898e-03  1.6375e-03  1.3182e-04  0:15:44  944
    57  2.0595e-04  2.0730e-03  2.0995e-03  2.9774e-03  1.5254e-03  1.2466e-04  0:00:00  943
    58  1.9855e-04  2.0037e-03  2.0385e-03  2.8731e-03  1.4357e-03  1.2126e-04  0:15:42  942
    59  1.9098e-04  1.9379e-03  1.9839e-03  2.7765e-03  1.3654e-03  1.1538e-04  0:15:41  941
    60  1.8394e-04  1.8793e-03  1.9328e-03  2.6892e-03  1.3036e-03  1.1392e-04  0:00:00  940
    61  1.7751e-04  1.8342e-03  1.8864e-03  2.6103e-03  1.2636e-03  1.1134e-04  0:15:39  939
    62  1.7216e-04  1.8000e-03  1.8439e-03  2.5342e-03  1.2379e-03  1.1044e-04  0:00:00  938
    63  1.6756e-04  1.7741e-03  1.8088e-03  2.4781e-03  1.2279e-03  1.0883e-04  0:15:37  937
    64  1.6381e-04  1.7456e-03  1.7783e-03  2.4193e-03  1.2240e-03  1.0540e-04  0:15:36  936
    65  1.6054e-04  1.7231e-03  1.7467e-03  2.3622e-03  1.2169e-03  1.0423e-04  0:00:00  935
    66  1.5806e-04  1.6906e-03  1.7174e-03  2.3000e-03  1.2103e-03  9.8795e-05  0:15:34  934

  iter  continuity  x-velocity  y-velocity  z-velocity           k       omega     time/iter
    67  1.5612e-04  1.6642e-03  1.6985e-03  2.2467e-03  1.2115e-03  9.8761e-05  0:00:00  933
    68  1.5431e-04  1.6349e-03  1.6721e-03  2.2023e-03  1.2157e-03  9.5635e-05  0:15:32  932
    69  1.5280e-04  1.5987e-03  1.6208e-03  2.1442e-03  1.2125e-03  9.8568e-05  0:15:31  931
    70  1.5183e-04  1.5666e-03  1.5720e-03  2.0859e-03  1.2016e-03  9.2639e-05  0:00:00  930
    71  1.5074e-04  1.5342e-03  1.5173e-03  2.0281e-03  1.1937e-03  9.0216e-05  0:15:29  929
    72  1.4898e-04  1.5047e-03  1.4567e-03  1.9673e-03  1.1807e-03  8.7809e-05  0:00:00  928
    73  1.4650e-04  1.4786e-03  1.4120e-03  1.9150e-03  1.1582e-03  8.6965e-05  0:15:27  927
    74  1.4354e-04  1.4439e-03  1.3700e-03  1.8616e-03  1.1225e-03  8.4126e-05  0:15:26  926
    75  1.4018e-04  1.4144e-03  1.3351e-03  1.8078e-03  1.0933e-03  8.5929e-05  0:00:00  925
    76  1.3677e-04  1.3884e-03  1.3090e-03  1.7583e-03  1.0734e-03  8.3775e-05  0:15:24  924
    77  1.3310e-04  1.3605e-03  1.2893e-03  1.7104e-03  1.0559e-03  8.1889e-05  0:00:00  923

  iter  continuity  x-velocity  y-velocity  z-velocity           k       omega     time/iter
    78  1.2904e-04  1.3366e-03  1.2741e-03  1.6729e-03  1.0378e-03  8.0549e-05  0:15:22  922
    79  1.2437e-04  1.3147e-03  1.2613e-03  1.6451e-03  1.0419e-03  7.8568e-05  0:15:21  921
    80  1.2033e-04  1.3014e-03  1.2506e-03  1.6131e-03  1.0529e-03  7.9951e-05  0:00:00  920
    81  1.1688e-04  1.2921e-03  1.2391e-03  1.5914e-03  1.0407e-03  7.7759e-05  0:15:19  919
    82  1.1438e-04  1.2892e-03  1.2280e-03  1.5797e-03  1.0291e-03  7.6783e-05  0:00:00  918
    83  1.1245e-04  1.2911e-03  1.2204e-03  1.5636e-03  1.0169e-03  7.6666e-05  0:15:17  917
    84  1.1077e-04  1.2847e-03  1.2230e-03  1.5479e-03  1.0058e-03  7.5710e-05  0:15:16  916
    85  1.0981e-04  1.2830e-03  1.2228e-03  1.5293e-03  9.8984e-04  7.1639e-05  0:00:00  915
    86  1.0896e-04  1.2958e-03  1.2379e-03  1.5133e-03  9.6693e-04  7.0736e-05  0:15:14  914
    87  1.0849e-04  1.3145e-03  1.2282e-03  1.4915e-03  9.3407e-04  7.0802e-05  0:00:00  913
    88  1.0728e-04  1.3384e-03  1.2465e-03  1.4826e-03  8.8422e-04  6.8559e-05  0:15:12  912

  iter  continuity  x-velocity  y-velocity  z-velocity           k       omega     time/iter
    89  1.0682e-04  1.3479e-03  1.2334e-03  1.4713e-03  8.2584e-04  6.8535e-05  0:15:11  911
    90  1.0608e-04  1.3674e-03  1.2581e-03  1.4605e-03  7.9697e-04  6.8949e-05  0:00:00  910
    91  1.0614e-04  1.3749e-03  1.2631e-03  1.4526e-03  7.8983e-04  6.9503e-05  0:15:09  909
    92  1.0646e-04  1.3770e-03  1.2856e-03  1.4448e-03  7.8924e-04  7.1416e-05  0:00:00  908
    93  1.0718e-04  1.3781e-03  1.3218e-03  1.4464e-03  7.8964e-04  6.8064e-05  0:15:07  907
    94  1.0880e-04  1.3986e-03  1.3608e-03  1.4473e-03  7.9811e-04  6.5880e-05  0:15:06  906
    95  1.0985e-04  1.4291e-03  1.3666e-03  1.4494e-03  8.2243e-04  6.7978e-05  0:00:00  905
    96  1.0993e-04  1.4676e-03  1.3769e-03  1.4558e-03  8.3813e-04  6.7143e-05  0:15:04  904
    97  1.1063e-04  1.5013e-03  1.3941e-03  1.4629e-03  8.6652e-04  6.6200e-05  0:00:00  903
    98  1.1251e-04  1.5443e-03  1.4270e-03  1.4741e-03  8.7170e-04  6.6354e-05  0:15:02  902
    99  1.1564e-04  1.5783e-03  1.4516e-03  1.4937e-03  8.7460e-04  6.6322e-05  0:15:01  901

  iter  continuity  x-velocity  y-velocity  z-velocity           k       omega     time/iter
   100  1.1885e-04  1.6193e-03  1.4734e-03  1.5321e-03  8.8335e-04  6.9013e-05  0:00:00  900
   101  1.2204e-04  1.6422e-03  1.5004e-03  1.6048e-03  8.8825e-04  6.7016e-05  0:14:59  899
   102  1.2668e-04  1.6734e-03  1.4749e-03  1.6031e-03  8.9375e-04  6.7722e-05  0:14:58  898
   103  1.3170e-04  1.6839e-03  1.5007e-03  1.6476e-03  8.9451e-04  6.7106e-05  0:00:00  897
   104  1.3497e-04  1.6972e-03  1.4999e-03  1.6557e-03  8.9176e-04  6.7755e-05  0:14:56  896
   105  1.3696e-04  1.6835e-03  1.5017e-03  1.6533e-03  8.7207e-04  6.7030e-05  0:00:00  895
   106  1.3923e-04  1.6454e-03  1.5060e-03  1.6502e-03  8.5348e-04  6.6796e-05  0:14:54  894
   107  1.4092e-04  1.6230e-03  1.5072e-03  1.6573e-03  8.3184e-04  6.8908e-05  0:14:53  893
   108  1.4171e-04  1.5976e-03  1.5079e-03  1.6655e-03  8.1363e-04  6.9565e-05  0:00:00  892
   109  1.4178e-04  1.5694e-03  1.5075e-03  1.6718e-03  7.9922e-04  7.0710e-05  0:14:51  891
   110  1.4133e-04  1.5601e-03  1.4986e-03  1.6672e-03  7.9371e-04  7.2023e-05  0:00:00  890

  iter  continuity  x-velocity  y-velocity  z-velocity           k       omega     time/iter
   111  1.4066e-04  1.5581e-03  1.4919e-03  1.6650e-03  7.9063e-04  7.2747e-05  0:14:49  889
   112  1.4065e-04  1.5704e-03  1.4985e-03  1.6739e-03  7.9559e-04  7.8725e-05  0:14:48  888
   113  1.4073e-04  1.5854e-03  1.5053e-03  1.6846e-03  8.0700e-04  8.2468e-05  0:00:00  887
   114  1.4128e-04  1.6008e-03  1.5085e-03  1.7020e-03  8.2774e-04  8.9388e-05  0:14:46  886
   115  1.4181e-04  1.6298e-03  1.5190e-03  1.7235e-03  8.5371e-04  9.1931e-05  0:14:45  885
   116  1.4332e-04  1.6570e-03  1.5279e-03  1.7554e-03  8.7802e-04  9.6501e-05  0:00:00  884
   117  1.4513e-04  1.6803e-03  1.5353e-03  1.7979e-03  9.0076e-04  9.9008e-05  0:14:43  883
   118  1.4674e-04  1.6994e-03  1.5308e-03  1.8386e-03  9.1191e-04  1.0481e-04  0:00:00  882
   119  1.4836e-04  1.7142e-03  1.5175e-03  1.8769e-03  9.2278e-04  1.0732e-04  0:14:41  881
   120  1.5022e-04  1.7207e-03  1.5015e-03  1.8776e-03  9.3085e-04  1.1244e-04  0:14:40  880
   121  1.5101e-04  1.6994e-03  1.4875e-03  1.8658e-03  9.2966e-04  1.1048e-04  0:00:00  879

  iter  continuity  x-velocity  y-velocity  z-velocity           k       omega     time/iter
   122  1.5080e-04  1.6829e-03  1.4783e-03  1.8639e-03  9.3396e-04  1.0373e-04  0:14:38  878
   123  1.5055e-04  1.6600e-03  1.4689e-03  1.8471e-03  9.2788e-04  9.8711e-05  0:14:37  877
   124  1.5069e-04  1.6349e-03  1.4568e-03  1.8232e-03  9.1158e-04  9.3725e-05  0:00:00  876
   125  1.4968e-04  1.6095e-03  1.4529e-03  1.7730e-03  8.9705e-04  8.9273e-05  0:14:35  875
   126  1.4809e-04  1.5604e-03  1.4399e-03  1.7273e-03  8.8626e-04  8.8298e-05  0:14:34  874
   127  1.4603e-04  1.5113e-03  1.4202e-03  1.6813e-03  8.7364e-04  8.6073e-05  0:00:00  873
   128  1.4297e-04  1.4758e-03  1.4030e-03  1.6338e-03  8.6057e-04  8.0914e-05  0:14:32  872
   129  1.3964e-04  1.4454e-03  1.3839e-03  1.5835e-03  8.4650e-04  7.7945e-05  0:14:31  871
   130  1.3573e-04  1.4155e-03  1.3547e-03  1.5198e-03  8.3112e-04  7.6937e-05  0:00:00  870
   131  1.3214e-04  1.3894e-03  1.3300e-03  1.4587e-03  8.1460e-04  7.6365e-05  0:14:29  869
   132  1.2814e-04  1.3665e-03  1.3093e-03  1.3986e-03  7.9810e-04  7.4574e-05  0:00:00  868

  iter  continuity  x-velocity  y-velocity  z-velocity           k       omega     time/iter
   133  1.2422e-04  1.3432e-03  1.2900e-03  1.3589e-03  7.9500e-04  7.6097e-05  0:14:27  867
   134  1.2051e-04  1.3139e-03  1.2744e-03  1.3382e-03  7.9069e-04  7.8321e-05  0:14:26  866
   135  1.1742e-04  1.3004e-03  1.2666e-03  1.3358e-03  7.8266e-04  7.7127e-05  0:00:00  865
   136  1.1416e-04  1.2868e-03  1.2682e-03  1.3490e-03  7.7900e-04  7.8501e-05  0:14:24  864
   137  1.1152e-04  1.2747e-03  1.2671e-03  1.3857e-03  7.7599e-04  8.0108e-05  0:14:23  863
   138  1.0979e-04  1.2574e-03  1.2638e-03  1.4052e-03  7.7008e-04  8.1543e-05  0:14:22  862
   139  1.0881e-04  1.2808e-03  1.2532e-03  1.4586e-03  7.6392e-04  8.5728e-05  0:00:00  861
   140  1.0777e-04  1.2939e-03  1.2419e-03  1.4668e-03  7.5843e-04  8.8164e-05  0:14:20  860
   141  1.0746e-04  1.2753e-03  1.2225e-03  1.4204e-03  7.4751e-04  8.6366e-05  0:14:19  859
   142  1.0724e-04  1.2462e-03  1.2025e-03  1.3848e-03  7.3986e-04  8.3853e-05  0:00:00  858
   143  1.0646e-04  1.2348e-03  1.1935e-03  1.3638e-03  7.3497e-04  8.2571e-05  0:14:17  857

  iter  continuity  x-velocity  y-velocity  z-velocity           k       omega     time/iter
   144  1.0416e-04  1.2254e-03  1.1794e-03  1.3351e-03  7.2800e-04  8.1494e-05  0:00:00  856
   145  1.0139e-04  1.1766e-03  1.1512e-03  1.2950e-03  7.1750e-04  7.1609e-05  0:14:15  855
   146  9.8834e-05  1.1512e-03  1.1412e-03  1.2711e-03  7.0453e-04  6.9346e-05  0:14:14  854
   147  9.6853e-05  1.1278e-03  1.1220e-03  1.2458e-03  6.9509e-04  6.7583e-05  0:14:13  853
   148  9.5293e-05  1.1167e-03  1.1025e-03  1.2252e-03  6.8761e-04  6.6715e-05  0:00:00  852
   149  9.4453e-05  1.1025e-03  1.0901e-03  1.2052e-03  6.8193e-04  6.4782e-05  0:14:11  851
   150  9.3427e-05  1.0835e-03  1.0756e-03  1.1952e-03  6.7844e-04  6.4467e-05  0:14:10  850
   151  9.1801e-05  1.0699e-03  1.0629e-03  1.1887e-03  6.7586e-04  6.3379e-05  0:00:00  849
   152  9.0622e-05  1.0660e-03  1.0601e-03  1.1907e-03  6.7096e-04  6.2895e-05  0:14:08  848
   153  9.0758e-05  1.0648e-03  1.0534e-03  1.2014e-03  6.7504e-04  6.2588e-05  0:14:07  847
   154  9.0772e-05  1.0587e-03  1.0475e-03  1.2044e-03  6.8953e-04  6.2318e-05  0:00:00  846

  iter  continuity  x-velocity  y-velocity  z-velocity           k       omega     time/iter
   155  9.1127e-05  1.0514e-03  1.0385e-03  1.1929e-03  7.0332e-04  6.1269e-05  0:14:05  845
   156  9.0986e-05  1.0288e-03  1.0220e-03  1.1844e-03  7.1047e-04  5.9623e-05  0:14:04  844
   157  9.0841e-05  1.0085e-03  1.0078e-03  1.1684e-03  7.1748e-04  6.0692e-05  0:00:00  843
   158  9.0254e-05  9.9107e-04  9.9321e-04  1.1522e-03  7.2534e-04  5.7969e-05  0:14:02  842
   159  8.9047e-05  9.7144e-04  9.8054e-04  1.1362e-03  7.2585e-04  6.1118e-05  0:14:01  841
   160  8.7661e-05  9.5696e-04  9.6831e-04  1.1165e-03  7.1244e-04  5.9360e-05  0:00:00  840
   161  8.6252e-05  9.3431e-04  9.5705e-04  1.0924e-03  6.9025e-04  6.3459e-05  0:13:59  839
   162  8.5164e-05  9.1809e-04  9.5040e-04  1.0753e-03  6.7206e-04  6.2444e-05  0:13:58  838
   163  8.3839e-05  8.9486e-04  9.4386e-04  1.0709e-03  6.6368e-04  6.3949e-05  0:00:00  837
   164  8.2442e-05  8.8295e-04  9.4287e-04  1.0678e-03  6.6139e-04  6.1115e-05  0:13:56  836
   165  8.0793e-05  8.8358e-04  9.4277e-04  1.0699e-03  6.6675e-04  6.1353e-05  0:13:55  835

  iter  continuity  x-velocity  y-velocity  z-velocity           k       omega     time/iter
   166  7.9220e-05  8.8953e-04  9.5254e-04  1.0699e-03  6.8247e-04  6.4373e-05  0:13:54  834
   167  7.7624e-05  8.9109e-04  9.6391e-04  1.0698e-03  6.9153e-04  7.3646e-05  0:00:00  833
   168  7.6282e-05  8.9898e-04  9.7178e-04  1.0712e-03  6.9503e-04  7.5886e-05  0:00:00  832
   169  7.5051e-05  9.0482e-04  9.6349e-04  1.0654e-03  6.9339e-04  6.1390e-05  0:13:51  831
   170  7.4185e-05  9.1875e-04  9.6180e-04  1.0613e-03  6.7681e-04  6.4200e-05  0:13:50  830
   171  7.3600e-05  9.3605e-04  9.6165e-04  1.0607e-03  6.6714e-04  6.8317e-05  0:00:00  829
   172  7.3096e-05  9.5838e-04  9.5348e-04  1.0556e-03  6.5258e-04  7.2066e-05  0:13:48  828
   173  7.2904e-05  9.6521e-04  9.4804e-04  1.0442e-03  6.2523e-04  7.1668e-05  0:13:47  827
   174  7.2805e-05  9.6188e-04  9.4334e-04  1.0329e-03  5.9990e-04  7.0510e-05  0:00:00  826
   175  7.2714e-05  9.5779e-04  9.4006e-04  1.0247e-03  5.7630e-04  6.8121e-05  0:13:45  825
   176  7.2792e-05  9.5298e-04  9.3326e-04  1.0167e-03  5.6217e-04  6.5993e-05  0:13:44  824

  iter  continuity  x-velocity  y-velocity  z-velocity           k       omega     time/iter
   177  7.2613e-05  9.6069e-04  9.3632e-04  1.0074e-03  5.4792e-04  6.5659e-05  0:00:00  823
   178  7.2409e-05  9.4144e-04  9.3827e-04  1.0015e-03  5.3487e-04  6.4081e-05  0:13:42  822
   179  7.2257e-05  9.1104e-04  9.3200e-04  9.6944e-04  5.2915e-04  6.4153e-05  0:13:41  821
   180  7.2038e-05  8.8483e-04  9.1880e-04  9.4832e-04  5.2363e-04  6.0704e-05  0:13:40  820
   181  7.1730e-05  8.5756e-04  8.9453e-04  9.2418e-04  5.1595e-04  6.1241e-05  0:00:00  819
   182  7.0824e-05  8.4742e-04  8.7557e-04  8.9584e-04  5.0889e-04  5.7539e-05  0:13:38  818
   183  6.9786e-05  8.4348e-04  8.6937e-04  8.7679e-04  5.0594e-04  5.9562e-05  0:13:37  817
   184  6.8799e-05  8.3803e-04  8.6246e-04  8.6247e-04  5.0818e-04  5.6490e-05  0:00:00  816
   185  6.8042e-05  8.3636e-04  8.4824e-04  8.4964e-04  5.1390e-04  5.7963e-05  0:13:35  815
   186  6.7543e-05  8.2823e-04  8.3351e-04  8.4213e-04  5.1416e-04  5.4512e-05  0:13:34  814
   187  6.7013e-05  8.0905e-04  8.1269e-04  8.3677e-04  5.1665e-04  5.6911e-05  0:00:00  813

  iter  continuity  x-velocity  y-velocity  z-velocity           k       omega     time/iter
   188  6.6643e-05  7.8883e-04  7.8582e-04  8.3503e-04  5.1985e-04  5.3799e-05  0:13:32  812
   189  6.5777e-05  7.7873e-04  7.6123e-04  8.3092e-04  5.1983e-04  5.7185e-05  0:13:31  811
   190  6.4967e-05  7.6291e-04  7.4634e-04  8.2435e-04  5.2294e-04  5.4014e-05  0:00:00  810
   191  6.4499e-05  7.5186e-04  7.2656e-04  8.2030e-04  5.1595e-04  5.8133e-05  0:00:00  809
   192  6.4091e-05  7.4798e-04  7.1892e-04  8.1723e-04  4.9645e-04  5.6039e-05  0:13:28  808
   193  6.3799e-05  7.2848e-04  7.0259e-04  8.1150e-04  4.7986e-04  5.9659e-05  0:13:27  807
   194  6.3512e-05  7.1656e-04  6.9858e-04  8.0070e-04  4.7209e-04  5.6427e-05  0:00:00  806
   195  6.3082e-05  7.0482e-04  6.9368e-04  7.9208e-04  4.6360e-04  5.9940e-05  0:13:25  805
   196  6.2766e-05  6.9540e-04  6.9750e-04  7.8571e-04  4.5091e-04  5.6655e-05  0:13:24  804
   197  6.2592e-05  6.8213e-04  6.9570e-04  7.7666e-04  4.4234e-04  5.7601e-05  0:00:00  803
   198  6.2580e-05  6.6969e-04  6.9690e-04  7.7047e-04  4.3928e-04  5.5188e-05  0:13:22  802

  iter  continuity  x-velocity  y-velocity  z-velocity           k       omega     time/iter
   199  6.2398e-05  6.6104e-04  6.9322e-04  7.6457e-04  4.3515e-04  5.5488e-05  0:13:21  801
   200  6.2038e-05  6.5128e-04  6.9402e-04  7.5706e-04  4.3590e-04  5.3914e-05  0:13:20  800
   201  6.1679e-05  6.3475e-04  6.8916e-04  7.4897e-04  4.3200e-04  5.3243e-05  0:00:00  799
   202  6.1137e-05  6.2747e-04  6.8454e-04  7.3763e-04  4.2581e-04  5.7572e-05  0:13:18  798
   203  6.0305e-05  6.2357e-04  6.7490e-04  7.2617e-04  4.2036e-04  5.7702e-05  0:13:17  797
   204  5.8821e-05  6.2305e-04  6.6549e-04  7.1176e-04  4.1761e-04  5.4105e-05  0:13:16  796
   205  5.7129e-05  6.2377e-04  6.5689e-04  6.9733e-04  4.1320e-04  5.3144e-05  0:00:00  795
   206  5.5492e-05  6.2995e-04  6.4872e-04  6.8560e-04  3.9901e-04  5.5981e-05  0:13:14  794
   207  5.3908e-05  6.3650e-04  6.3957e-04  6.7552e-04  3.8035e-04  5.3275e-05  0:13:13  793
   208  5.2712e-05  6.3990e-04  6.3333e-04  6.6951e-04  3.6685e-04  5.1687e-05  0:00:00  792
   209  5.1600e-05  6.4823e-04  6.3674e-04  6.6769e-04  3.5693e-04  4.9587e-05  0:13:11  791

  iter  continuity  x-velocity  y-velocity  z-velocity           k       omega     time/iter
   210  5.0903e-05  6.5966e-04  6.3411e-04  6.6687e-04  3.4292e-04  5.7104e-05  0:13:10  790
   211  5.0698e-05  6.7409e-04  6.3275e-04  6.6548e-04  3.3437e-04  5.3228e-05  0:00:00  789
   212  5.0864e-05  6.8077e-04  6.3110e-04  6.6621e-04  3.2904e-04  5.1123e-05  0:13:08  788
   213  5.1379e-05  6.8763e-04  6.3859e-04  6.6993e-04  3.1752e-04  4.7996e-05  0:13:07  787
   214  5.1835e-05  6.8940e-04  6.4434e-04  6.6931e-04  3.1357e-04  5.0323e-05  0:13:06  786
   215  5.2466e-05  6.8797e-04  6.5721e-04  6.7093e-04  3.1245e-04  4.7977e-05  0:00:00  785
   216  5.2813e-05  6.8262e-04  6.6444e-04  6.7610e-04  3.1461e-04  4.9985e-05  0:13:04  784
   217  5.3742e-05  6.8383e-04  6.7083e-04  6.8104e-04  3.2109e-04  4.5712e-05  0:13:03  783
   218  5.4292e-05  6.8396e-04  6.7360e-04  6.7919e-04  3.3328e-04  4.6774e-05  0:00:00  782
   219  5.4152e-05  6.8026e-04  6.7999e-04  6.7013e-04  3.4028e-04  4.6530e-05  0:13:01  781
   220  5.3371e-05  6.9292e-04  6.8823e-04  6.5683e-04  3.5044e-04  4.6756e-05  0:13:00  780

  iter  continuity  x-velocity  y-velocity  z-velocity           k       omega     time/iter
   221  5.2545e-05  6.8392e-04  6.8570e-04  6.3412e-04  3.6213e-04  4.3974e-05  0:00:00  779
   222  5.1320e-05  6.6000e-04  6.6555e-04  6.1676e-04  3.7211e-04  4.3802e-05  0:12:58  778
   223  4.9987e-05  6.3502e-04  6.4077e-04  5.9704e-04  3.7016e-04  4.6380e-05  0:12:57  777
   224  4.8688e-05  5.9899e-04  6.1842e-04  5.8217e-04  3.6782e-04  4.5013e-05  0:12:56  776
   225  4.7590e-05  5.7925e-04  5.9679e-04  5.7432e-04  3.7084e-04  4.4876e-05  0:00:00  775
   226  4.6090e-05  5.6861e-04  5.8502e-04  5.7672e-04  3.5878e-04  4.3637e-05  0:12:54  774
   227  4.4943e-05  5.5768e-04  5.7074e-04  5.9005e-04  3.4075e-04  4.9029e-05  0:12:53  773
   228  4.4553e-05  5.4673e-04  5.6713e-04  6.0616e-04  3.2711e-04  4.6123e-05  0:00:00  772
   229  4.4868e-05  5.4082e-04  5.5897e-04  6.2363e-04  3.1368e-04  4.6472e-05  0:12:51  771
   230  4.5442e-05  5.3808e-04  5.5765e-04  6.2987e-04  3.0486e-04  4.5187e-05  0:12:50  770
   231  4.6821e-05  5.3751e-04  5.6096e-04  6.3826e-04  3.0169e-04  5.4484e-05  0:12:49  769

  iter  continuity  x-velocity  y-velocity  z-velocity           k       omega     time/iter
   232  4.8133e-05  5.3523e-04  5.7861e-04  6.4751e-04  3.0084e-04  4.9376e-05  0:00:00  768
   233  4.8891e-05  5.2791e-04  5.7326e-04  6.5382e-04  3.0299e-04  4.5373e-05  0:12:47  767
   234  4.9712e-05  5.1836e-04  5.8098e-04  6.5878e-04  3.1202e-04  4.3213e-05  0:12:46  766
   235  5.0185e-05  5.2206e-04  5.8344e-04  6.6680e-04  3.1574e-04  4.9987e-05  0:00:00  765
   236  4.9879e-05  5.5558e-04  5.9411e-04  6.7886e-04  3.1867e-04  4.7989e-05  0:12:44  764
   237  4.8475e-05  5.6194e-04  5.9632e-04  6.6594e-04  3.2054e-04  4.4763e-05  0:12:43  763
   238  4.8171e-05  5.2129e-04  5.7803e-04  6.3205e-04  3.2154e-04  4.3196e-05  0:12:42  762
   239  5.0406e-05  5.6827e-04  5.7948e-04  6.2590e-04  3.2222e-04  5.0314e-05  0:00:00  761
   240  5.2653e-05  5.5852e-04  5.7850e-04  6.0418e-04  3.2087e-04  4.8484e-05  0:12:40  760
   241  4.7986e-05  5.6064e-04  5.7059e-04  5.8221e-04  3.1406e-04  4.5112e-05  0:12:39  759
   242  4.4943e-05  5.4464e-04  5.6108e-04  5.5840e-04  3.0977e-04  4.6789e-05  0:12:38  758

  iter  continuity  x-velocity  y-velocity  z-velocity           k       omega     time/iter
   243  4.5588e-05  5.4873e-04  5.5367e-04  5.4751e-04  2.9053e-04  4.4092e-05  0:00:00  757
   244  4.5497e-05  5.7243e-04  5.6185e-04  5.6031e-04  2.7901e-04  4.2687e-05  0:12:36  756
   245  4.4203e-05  6.0723e-04  5.8354e-04  5.8410e-04  2.7566e-04  4.1895e-05  0:12:35  755
   246  4.4217e-05  6.0089e-04  5.8781e-04  5.8873e-04  2.8167e-04  4.4629e-05  0:00:00  754
   247  4.4777e-05  5.9674e-04  5.7914e-04  6.0917e-04  2.7807e-04  4.2859e-05  0:12:33  753
   248  4.6928e-05  6.3849e-04  5.7994e-04  6.2859e-04  2.8281e-04  4.2672e-05  0:12:32  752
   249  5.1050e-05  6.3872e-04  5.8993e-04  6.2882e-04  2.8012e-04  4.1424e-05  0:00:00  751
   250  5.0181e-05  6.4902e-04  6.0572e-04  6.2551e-04  2.7404e-04  4.7991e-05  0:12:30  750
   251  4.9466e-05  6.6473e-04  6.3794e-04  6.3042e-04  2.8094e-04  4.5339e-05  0:12:29  749
   252  5.1003e-05  6.8384e-04  6.5764e-04  6.1990e-04  2.8868e-04  4.2931e-05  0:12:28  748
   253  5.1760e-05  7.1549e-04  6.8158e-04  6.4187e-04  2.9263e-04  4.2111e-05  0:00:00  747

  iter  continuity  x-velocity  y-velocity  z-velocity           k       omega     time/iter
   254  5.1376e-05  7.4095e-04  6.9609e-04  6.5272e-04  3.0274e-04  4.3292e-05  0:12:26  746
   255  5.1620e-05  7.4047e-04  7.0839e-04  6.3923e-04  3.1661e-04  4.6721e-05  0:12:25  745
   256  5.1519e-05  7.3123e-04  6.9636e-04  5.9826e-04  3.2838e-04  4.6141e-05  0:12:24  744
   257  5.2202e-05  7.5163e-04  7.1027e-04  5.9725e-04  3.2767e-04  4.3458e-05  0:00:00  743
   258  5.3712e-05  7.8404e-04  7.1523e-04  5.9176e-04  3.3234e-04  4.3551e-05  0:12:22  742
   259  5.0769e-05  7.7790e-04  7.0584e-04  5.8274e-04  3.3696e-04  5.0685e-05  0:12:21  741
   260  4.9253e-05  7.4432e-04  6.9862e-04  5.7149e-04  3.4639e-04  4.7461e-05  0:00:00  740
   261  5.0939e-05  7.2222e-04  6.7827e-04  5.7672e-04  3.6551e-04  4.4995e-05  0:12:19  739
   262  5.1583e-05  6.9785e-04  6.7088e-04  5.9857e-04  3.7553e-04  4.3768e-05  0:12:18  738
   263  5.0633e-05  6.9966e-04  6.7088e-04  6.1762e-04  3.6789e-04  5.4558e-05  0:12:17  737
   264  5.0047e-05  6.4116e-04  6.4729e-04  6.1682e-04  3.6650e-04  5.0303e-05  0:00:00  736

  iter  continuity  x-velocity  y-velocity  z-velocity           k       omega     time/iter
   265  4.9795e-05  6.2843e-04  6.1300e-04  6.3601e-04  3.5528e-04  4.5647e-05  0:12:15  735
   266  5.1094e-05  6.2896e-04  6.0025e-04  6.4199e-04  3.3689e-04  4.3551e-05  0:12:14  734
   267  5.2020e-05  5.9652e-04  5.8482e-04  6.1512e-04  3.2389e-04  5.4252e-05  0:00:00  733
   268  4.9259e-05  5.5992e-04  5.6567e-04  5.8282e-04  3.1200e-04  5.0757e-05  0:12:12  732
   269  4.8021e-05  5.3512e-04  5.4104e-04  5.6140e-04  2.9893e-04  4.5361e-05  0:12:11  731
   270  4.9915e-05  5.1703e-04  5.2744e-04  5.4586e-04  2.9320e-04  4.4382e-05  0:12:10  730
   271  4.9425e-05  5.3422e-04  5.3092e-04  5.4171e-04  2.9072e-04  4.4650e-05  0:00:00  729
   272  4.8059e-05  5.3771e-04  5.3722e-04  5.2797e-04  2.9418e-04  4.3405e-05  0:12:08  728
   273  4.7062e-05  4.9615e-04  5.1390e-04  4.9247e-04  2.9911e-04  4.4710e-05  0:12:07  727
   274  4.6283e-05  5.0419e-04  5.0605e-04  4.9567e-04  3.0777e-04  4.6254e-05  0:00:00  726
   275  4.8107e-05  5.1357e-04  5.0987e-04  4.9927e-04  3.1701e-04  4.6931e-05  0:12:05  725

  iter  continuity  x-velocity  y-velocity  z-velocity           k       omega     time/iter
   276  4.7881e-05  5.1591e-04  5.2183e-04  4.9712e-04  3.2904e-04  4.7762e-05  0:12:04  724
   277  4.5280e-05  5.1567e-04  5.2512e-04  4.8911e-04  3.3452e-04  4.3749e-05  0:00:00  723
   278  4.4582e-05  5.1643e-04  5.2699e-04  4.8016e-04  3.3831e-04  4.8359e-05  0:12:02  722
   279  4.6401e-05  5.3281e-04  5.2746e-04  4.8157e-04  3.4078e-04  4.5022e-05  0:12:01  721
   280  4.4971e-05  5.7786e-04  5.4943e-04  5.0922e-04  3.4312e-04  4.4232e-05  0:12:00  720
   281  4.3989e-05  5.8349e-04  5.5334e-04  5.0027e-04  3.4141e-04  4.4579e-05  0:00:00  719
   282  4.3386e-05  5.5093e-04  5.3318e-04  4.5994e-04  3.3654e-04  4.5940e-05  0:11:58  718
   283  4.3956e-05  5.7335e-04  5.3373e-04  4.7747e-04  3.3392e-04  4.2093e-05  0:11:57  717
   284  4.6940e-05  5.6512e-04  5.3152e-04  4.6697e-04  3.2697e-04  4.5535e-05  0:00:00  716
   285  4.4067e-05  5.5583e-04  5.3370e-04  4.6250e-04  3.0914e-04  4.3118e-05  0:11:55  715
   286  4.1160e-05  5.4068e-04  5.2594e-04  4.5898e-04  2.8804e-04  4.2746e-05  0:11:54  714

  iter  continuity  x-velocity  y-velocity  z-velocity           k       omega     time/iter
   287  4.1838e-05  5.2881e-04  5.2045e-04  4.6329e-04  2.7751e-04  4.0221e-05  0:11:53  713
   288  4.2784e-05  5.4460e-04  5.2109e-04  4.8862e-04  2.8143e-04  4.2202e-05  0:00:00  712
   289  4.1879e-05  5.7905e-04  5.4400e-04  5.2669e-04  2.8164e-04  4.0262e-05  0:11:51  711
   290  4.1919e-05  5.6056e-04  5.3217e-04  5.1943e-04  2.7456e-04  4.1351e-05  0:11:50  710
   291  4.3072e-05  5.4172e-04  5.2035e-04  5.1751e-04  2.7432e-04  3.9564e-05  0:00:00  709
   292  4.6219e-05  5.6484e-04  5.2950e-04  5.4204e-04  2.7152e-04  4.0881e-05  0:00:00  708
   293  4.9595e-05  5.5838e-04  5.3697e-04  5.4028e-04  2.7202e-04  3.9511e-05  0:11:47  707
   294  4.7137e-05  5.5153e-04  5.4822e-04  5.3455e-04  2.7700e-04  4.0153e-05  0:11:46  706
   295  4.6051e-05  5.4281e-04  5.5427e-04  5.1898e-04  2.8472e-04  3.9225e-05  0:00:00  705
   296  4.7594e-05  5.5050e-04  5.5240e-04  5.0064e-04  2.8948e-04  3.9631e-05  0:11:44  704
   297  4.6717e-05  5.7677e-04  5.5248e-04  4.9853e-04  2.9471e-04  3.9386e-05  0:11:43  703

  iter  continuity  x-velocity  y-velocity  z-velocity           k       omega     time/iter
   298  4.3999e-05  5.8670e-04  5.4566e-04  4.8901e-04  2.9675e-04  3.9650e-05  0:11:42  702
   299  4.2031e-05  5.5268e-04  5.1331e-04  4.4502e-04  2.9430e-04  3.9322e-05  0:00:00  701
   300  4.0455e-05  5.4431e-04  4.8932e-04  4.4049e-04  2.8096e-04  3.9450e-05  0:11:40  700
   301  4.1951e-05  5.3150e-04  4.7440e-04  4.4145e-04  2.6790e-04  3.9771e-05  0:11:39  699
   302  4.0892e-05  5.0452e-04  4.6774e-04  4.3534e-04  2.6410e-04  3.9581e-05  0:11:38  698
   303  3.7583e-05  4.7574e-04  4.5869e-04  4.3032e-04  2.6712e-04  3.9928e-05  0:00:00  697
   304  3.6443e-05  4.5511e-04  4.4922e-04  4.2630e-04  2.6740e-04  3.9794e-05  0:11:36  696
   305  3.8952e-05  4.4406e-04  4.3615e-04  4.3120e-04  2.6151e-04  4.0281e-05  0:11:35  695
   306  3.7323e-05  4.7899e-04  4.6010e-04  4.6744e-04  2.6191e-04  4.0911e-05  0:00:00  694
   307  3.6111e-05  4.6855e-04  4.5671e-04  4.7105e-04  2.6578e-04  4.1031e-05  0:11:33  693
   308  3.5554e-05  4.2050e-04  4.3392e-04  4.4101e-04  2.6947e-04  4.2774e-05  0:11:32  692

  iter  continuity  x-velocity  y-velocity  z-velocity           k       omega     time/iter
   309  3.6248e-05  4.4656e-04  4.3428e-04  4.6614e-04  2.6771e-04  4.2468e-05  0:11:31  691
   310  3.9521e-05  4.3083e-04  4.3938e-04  4.5327e-04  2.6320e-04  4.2658e-05  0:00:00  690
   311  3.6224e-05  4.2424e-04  4.3796e-04  4.3098e-04  2.6659e-04  4.2657e-05  0:11:29  689
   312  3.3609e-05  4.1685e-04  4.3125e-04  4.0116e-04  2.5697e-04  4.3087e-05  0:11:28  688
   313  3.4877e-05  4.1400e-04  4.1244e-04  3.7777e-04  2.3432e-04  4.2932e-05  0:00:00  687
   314  3.5182e-05  4.4290e-04  4.1172e-04  3.7910e-04  2.1909e-04  4.4395e-05  0:11:26  686
   315  3.3251e-05  4.6570e-04  4.2003e-04  3.9750e-04  2.1148e-04  4.4015e-05  0:11:25  685
   316  3.1699e-05  4.3053e-04  4.0048e-04  3.6702e-04  2.0628e-04  4.4216e-05  0:11:24  684
   317  3.0982e-05  4.0415e-04  3.7375e-04  3.4106e-04  2.0410e-04  4.3169e-05  0:00:00  683
   318  3.3236e-05  4.3053e-04  3.8133e-04  3.5501e-04  2.0852e-04  4.5123e-05  0:11:22  682
   319  3.4505e-05  4.3085e-04  3.8547e-04  3.4330e-04  2.0977e-04  4.3949e-05  0:11:21  681

  iter  continuity  x-velocity  y-velocity  z-velocity           k       omega     time/iter
   320  3.0084e-05  4.1927e-04  3.8523e-04  3.3344e-04  2.0845e-04  4.4383e-05  0:11:20  680
   321  2.7964e-05  4.0938e-04  3.7962e-04  3.2484e-04  2.0858e-04  4.3633e-05  0:00:00  679
   322  3.0899e-05  4.0684e-04  3.7248e-04  3.2499e-04  2.0865e-04  4.5896e-05  0:11:18  678
   323  3.0172e-05  4.4430e-04  3.9222e-04  3.5804e-04  2.0985e-04  4.4801e-05  0:11:17  677
   324  2.8622e-05  4.5710e-04  4.0691e-04  3.7163e-04  2.1186e-04  4.4594e-05  0:00:00  676
   325  2.8357e-05  4.1328e-04  3.8974e-04  3.3111e-04  2.1181e-04  4.3414e-05  0:11:15  675
   326  2.8749e-05  4.3281e-04  3.8282e-04  3.4488e-04  2.1515e-04  4.7046e-05  0:11:14  674
   327  3.3165e-05  4.2982e-04  3.8779e-04  3.4592e-04  2.1300e-04  4.5308e-05  0:11:13  673
   328  3.2809e-05  4.1393e-04  3.9431e-04  3.4248e-04  2.0528e-04  4.3293e-05  0:00:00  672
   329  3.0270e-05  3.9315e-04  3.9099e-04  3.3455e-04  2.0161e-04  4.2794e-05  0:11:11  671
   330  3.0150e-05  3.7796e-04  3.9048e-04  3.2850e-04  2.0272e-04  5.0709e-05  0:11:10  670

  iter  continuity  x-velocity  y-velocity  z-velocity           k       omega     time/iter
   331  3.2862e-05  3.7892e-04  3.7810e-04  3.3568e-04  2.0362e-04  4.8168e-05  0:00:00  669
   332  3.1242e-05  4.2215e-04  4.0584e-04  3.8074e-04  2.0681e-04  4.3332e-05  0:11:08  668
   333  3.0547e-05  4.0921e-04  4.0386e-04  3.7571e-04  2.0843e-04  4.6004e-05  0:11:07  667
   334  3.0808e-05  3.6827e-04  3.7961e-04  3.4090e-04  2.0406e-04  4.4488e-05  0:11:06  666
   335  3.3243e-05  4.0052e-04  3.8437e-04  3.7393e-04  2.0275e-04  4.3445e-05  0:00:00  665
   336  3.7027e-05  3.8995e-04  3.9888e-04  3.7064e-04  2.0262e-04  4.3772e-05  0:11:04  664
   337  3.4081e-05  3.8278e-04  4.0091e-04  3.6721e-04  2.0468e-04  4.4757e-05  0:11:03  663
   338  3.2292e-05  3.7852e-04  4.0305e-04  3.6015e-04  2.0918e-04  4.5390e-05  0:00:00  662
   339  3.4485e-05  3.7671e-04  3.9645e-04  3.6028e-04  2.1270e-04  4.2451e-05  0:11:01  661
   340  3.4729e-05  4.0707e-04  4.0899e-04  3.8719e-04  2.1566e-04  4.2907e-05  0:11:00  660
   341  3.3322e-05  4.3641e-04  4.2668e-04  4.1554e-04  2.2026e-04  4.5670e-05  0:10:59  659

  iter  continuity  x-velocity  y-velocity  z-velocity           k       omega     time/iter
   342  3.2710e-05  3.9928e-04  4.1733e-04  3.9456e-04  2.3067e-04  4.5955e-05  0:00:00  658
   343  3.3100e-05  3.9089e-04  4.0737e-04  4.0053e-04  2.4849e-04  4.3531e-05  0:10:57  657
   344  3.6322e-05  4.1392e-04  4.2838e-04  4.2807e-04  2.7775e-04  4.5582e-05  0:10:56  656
   345  3.7422e-05  4.0812e-04  4.4546e-04  4.4034e-04  3.0201e-04  4.4445e-05  0:00:00  655
   346  3.4461e-05  4.0082e-04  4.6395e-04  4.5380e-04  3.1762e-04  4.3548e-05  0:00:00  654
   347  3.3964e-05  4.0418e-04  4.6826e-04  4.6276e-04  3.3219e-04  4.3728e-05  0:10:53  653
   348  3.7702e-05  4.3457e-04  4.7602e-04  4.8343e-04  3.5125e-04  4.5952e-05  0:10:52  652
   349  3.8774e-05  4.8642e-04  5.0430e-04  5.2421e-04  3.6340e-04  4.6018e-05  0:00:00  651
   350  3.9423e-05  4.9384e-04  5.1273e-04  5.4784e-04  3.5371e-04  4.3671e-05  0:10:50  650
   351  4.0732e-05  4.5928e-04  4.8343e-04  5.3100e-04  3.3298e-04  4.3986e-05  0:10:49  649
   352  4.1845e-05  4.8528e-04  4.6843e-04  5.4219e-04  3.2638e-04  4.5106e-05  0:10:48  648

  iter  continuity  x-velocity  y-velocity  z-velocity           k       omega     time/iter
   353  4.4849e-05  4.8591e-04  4.4874e-04  5.1371e-04  3.0092e-04  4.5161e-05  0:00:00  647
   354  4.2927e-05  4.7358e-04  4.4224e-04  4.7313e-04  2.6788e-04  4.2446e-05  0:10:46  646
   355  4.0194e-05  4.5088e-04  4.2289e-04  4.2942e-04  2.4225e-04  4.3340e-05  0:10:45  645
   356  3.9251e-05  4.2537e-04  4.0498e-04  3.9846e-04  2.2961e-04  4.4886e-05  0:10:44  644
   357  3.9556e-05  4.1335e-04  3.7946e-04  3.8809e-04  2.1819e-04  4.4840e-05  0:00:00  643
   358  3.7151e-05  4.3531e-04  3.9510e-04  4.0494e-04  2.1239e-04  4.1611e-05  0:10:42  642
   359  3.5240e-05  3.9870e-04  3.7262e-04  3.7961e-04  2.0073e-04  4.2489e-05  0:10:41  641
   360  3.4114e-05  3.4384e-04  3.3786e-04  3.4485e-04  1.9059e-04  4.3964e-05  0:00:00  640
   361  3.5747e-05  3.5964e-04  3.3470e-04  3.6768e-04  1.8526e-04  4.4374e-05  0:10:39  639
   362  3.7821e-05  3.2922e-04  3.4095e-04  3.5405e-04  1.8566e-04  4.1210e-05  0:10:38  638
   363  3.3707e-05  3.0993e-04  3.4301e-04  3.4391e-04  1.8989e-04  4.2101e-05  0:10:37  637

  iter  continuity  x-velocity  y-velocity  z-velocity           k       omega     time/iter
   364  3.1276e-05  2.9502e-04  3.4246e-04  3.3491e-04  1.9509e-04  4.4949e-05  0:00:00  636
   365  3.3870e-05  2.8193e-04  3.3494e-04  3.3373e-04  2.0145e-04  4.4119e-05  0:10:35  635
   366  3.3705e-05  3.2915e-04  3.6033e-04  3.6272e-04  2.1201e-04  4.1027e-05  0:10:34  634
   367  3.2513e-05  3.5913e-04  3.8234e-04  3.8347e-04  2.2043e-04  4.1345e-05  0:10:33  633
   368  3.2202e-05  3.1316e-04  3.6854e-04  3.4798e-04  2.2555e-04  4.1151e-05  0:10:32  632
   369  3.2506e-05  3.1838e-04  3.5803e-04  3.4988e-04  2.3221e-04  4.1311e-05  0:00:00  631
   370  3.5754e-05  3.3825e-04  3.6812e-04  3.5973e-04  2.4001e-04  4.4444e-05  0:10:30  630
   371  3.6333e-05  3.4318e-04  3.7853e-04  3.5351e-04  2.4601e-04  4.3477e-05  0:10:29  629
   372  3.3824e-05  3.2829e-04  3.8049e-04  3.4356e-04  2.5391e-04  4.1292e-05  0:10:28  628
   373  3.3663e-05  3.1904e-04  3.7602e-04  3.3353e-04  2.5828e-04  4.1670e-05  0:00:00  627
   374  3.6727e-05  3.3043e-04  3.6906e-04  3.3382e-04  2.5866e-04  4.1917e-05  0:10:26  626

  iter  continuity  x-velocity  y-velocity  z-velocity           k       omega     time/iter
   375  3.5345e-05  3.9259e-04  3.9829e-04  3.7538e-04  2.5540e-04  4.0384e-05  0:10:25  625
   376  3.4265e-05  3.8793e-04  4.0061e-04  3.6918e-04  2.5687e-04  4.1165e-05  0:10:24  624
   377  3.4340e-05  3.3253e-04  3.7410e-04  3.2187e-04  2.6319e-04  4.0696e-05  0:00:00  623
   378  3.5660e-05  3.7643e-04  3.7935e-04  3.4891e-04  2.6472e-04  4.1842e-05  0:10:22  622
   379  3.9173e-05  3.6331e-04  3.7980e-04  3.3525e-04  2.5819e-04  4.0360e-05  0:10:21  621
   380  3.5917e-05  3.5018e-04  3.8381e-04  3.2873e-04  2.4660e-04  4.1052e-05  0:00:00  620
   381  3.2858e-05  3.3691e-04  3.7561e-04  3.1914e-04  2.3648e-04  4.0188e-05  0:10:19  619
   382  3.3673e-05  3.3042e-04  3.7052e-04  3.1556e-04  2.2932e-04  4.0031e-05  0:10:18  618
   383  3.3722e-05  3.5377e-04  3.7356e-04  3.3590e-04  2.2603e-04  4.0078e-05  0:10:17  617
   384  3.1566e-05  3.8562e-04  4.0556e-04  3.6833e-04  2.2405e-04  4.0191e-05  0:00:00  616
   385  3.0648e-05  3.5013e-04  3.9392e-04  3.4726e-04  2.2154e-04  4.0202e-05  0:10:15  615

  iter  continuity  x-velocity  y-velocity  z-velocity           k       omega     time/iter
   386  3.0476e-05  3.3165e-04  3.8840e-04  3.3484e-04  2.2487e-04  4.0075e-05  0:10:14  614
   387  3.3810e-05  3.5400e-04  3.9540e-04  3.6442e-04  2.3758e-04  4.0885e-05  0:10:13  613
   388  3.5595e-05  3.4707e-04  4.1438e-04  3.7176e-04  2.5155e-04  4.0011e-05  0:00:00  612
   389  3.2249e-05  3.4348e-04  4.2494e-04  3.7848e-04  2.6973e-04  4.0889e-05  0:10:11  611
   390  3.0696e-05  3.4237e-04  4.3704e-04  3.9200e-04  2.8704e-04  4.0933e-05  0:10:10  610
   391  3.3891e-05  3.5735e-04  4.4119e-04  4.1587e-04  3.0359e-04  4.1912e-05  0:00:00  609
   392  3.4371e-05  4.1773e-04  4.7439e-04  4.5809e-04  3.2462e-04  4.1374e-05  0:10:08  608
   393  3.4777e-05  4.5498e-04  4.9882e-04  4.8288e-04  3.3657e-04  4.3022e-05  0:10:07  607
   394  3.6097e-05  4.3058e-04  4.9350e-04  4.6851e-04  3.3145e-04  4.3408e-05  0:10:06  606
   395  3.8547e-05  4.5235e-04  4.8022e-04  4.9009e-04  3.2039e-04  4.4150e-05  0:00:00  605
   396  4.2965e-05  4.6077e-04  4.7237e-04  4.8983e-04  3.1057e-04  4.2681e-05  0:10:04  604

  iter  continuity  x-velocity  y-velocity  z-velocity           k       omega     time/iter
   397  4.2836e-05  4.5894e-04  4.5748e-04  4.7829e-04  2.8557e-04  4.3638e-05  0:10:03  603
   398  4.0214e-05  4.4407e-04  4.4129e-04  4.4533e-04  2.6205e-04  4.4833e-05  0:00:00  602
   399  3.9313e-05  4.2159e-04  4.1692e-04  4.1280e-04  2.3777e-04  4.4857e-05  0:00:00  601
   400  4.0383e-05  4.1590e-04  3.9914e-04  3.9659e-04  2.1966e-04  4.3136e-05  0:10:00  600
   401  3.8002e-05  4.4895e-04  4.0915e-04  4.1758e-04  2.1107e-04  4.4082e-05  0:09:59  599
   402  3.5992e-05  4.2264e-04  3.9900e-04  3.9431e-04  2.0323e-04  4.6677e-05  0:00:00  598
   403  3.4990e-05  3.6381e-04  3.6148e-04  3.4687e-04  1.9158e-04  4.5918e-05  0:09:57  597
   404  3.5819e-05  3.9007e-04  3.5982e-04  3.6493e-04  1.8277e-04  4.3143e-05  0:09:56  596
   405  3.8068e-05  3.6332e-04  3.5063e-04  3.4356e-04  1.7909e-04  4.4508e-05  0:09:55  595
   406  3.3353e-05  3.4264e-04  3.5267e-04  3.2683e-04  1.8047e-04  5.0708e-05  0:00:00  594
   407  3.0142e-05  3.2052e-04  3.4191e-04  3.0780e-04  1.7590e-04  4.8900e-05  0:09:53  593

  iter  continuity  x-velocity  y-velocity  z-velocity           k       omega     time/iter
   408  3.1197e-05  3.2153e-04  3.3541e-04  2.9723e-04  1.7214e-04  4.1570e-05  0:09:52  592
   409  3.0524e-05  3.6053e-04  3.4199e-04  3.1692e-04  1.7174e-04  4.1615e-05  0:00:00  591
   410  2.8228e-05  3.7721e-04  3.7106e-04  3.4092e-04  1.7440e-04  5.4688e-05  0:00:00  590
   411  2.7301e-05  3.2729e-04  3.5781e-04  3.0472e-04  1.7698e-04  5.2156e-05  0:09:49  589
   412  2.6909e-05  3.1875e-04  3.4431e-04  2.9299e-04  1.8204e-04  4.2191e-05  0:09:48  588
   413  3.0534e-05  3.4330e-04  3.5220e-04  3.1133e-04  1.8825e-04  4.8968e-05  0:00:00  587
   414  3.2135e-05  3.3598e-04  3.6455e-04  3.0673e-04  1.9262e-04  4.4146e-05  0:09:46  586
   415  2.9252e-05  3.2681e-04  3.6534e-04  3.0148e-04  1.9799e-04  4.1325e-05  0:09:45  585
   416  2.8402e-05  3.2403e-04  3.6400e-04  2.9667e-04  2.0571e-04  4.2589e-05  0:09:44  584
   417  3.1685e-05  3.2329e-04  3.5645e-04  3.0287e-04  2.1312e-04  4.6168e-05  0:00:00  583
   418  3.1417e-05  3.7332e-04  3.8501e-04  3.4801e-04  2.2117e-04  4.6640e-05  0:09:42  582

  iter  continuity  x-velocity  y-velocity  z-velocity           k       omega     time/iter
   419  3.0965e-05  3.8175e-04  3.9562e-04  3.5997e-04  2.2739e-04  4.0742e-05  0:09:41  581
   420  3.1365e-05  3.2726e-04  3.6981e-04  3.2078e-04  2.2757e-04  4.3150e-05  0:09:40  580
   421  3.2376e-05  3.5735e-04  3.6728e-04  3.4896e-04  2.2781e-04  4.1148e-05  0:00:00  579
   422  3.6787e-05  3.4894e-04  3.6633e-04  3.4490e-04  2.2867e-04  4.6381e-05  0:09:38  578
   423  3.5565e-05  3.4834e-04  3.7758e-04  3.4306e-04  2.3324e-04  4.4160e-05  0:09:37  577
   424  3.3171e-05  3.3537e-04  3.6921e-04  3.3465e-04  2.3447e-04  4.1922e-05  0:09:36  576
   425  3.3769e-05  3.2360e-04  3.6668e-04  3.2788e-04  2.3155e-04  4.0230e-05  0:00:00  575
   426  3.5803e-05  3.3848e-04  3.5858e-04  3.3577e-04  2.3100e-04  4.2618e-05  0:09:34  574
   427  3.4391e-05  3.8538e-04  3.8830e-04  3.7121e-04  2.2948e-04  4.1158e-05  0:09:33  573
   428  3.2618e-05  3.6034e-04  3.7962e-04  3.5236e-04  2.2368e-04  4.3019e-05  0:00:00  572
   429  3.1952e-05  3.1124e-04  3.5196e-04  3.1547e-04  2.1602e-04  4.0066e-05  0:09:31  571

  iter  continuity  x-velocity  y-velocity  z-velocity           k       omega     time/iter
   430  3.3704e-05  3.4657e-04  3.5986e-04  3.4193e-04  2.1197e-04  4.1708e-05  0:09:30  570
   431  3.5849e-05  3.3350e-04  3.6427e-04  3.3012e-04  2.0760e-04  4.0507e-05  0:09:29  569
   432  3.1156e-05  3.1438e-04  3.6902e-04  3.2200e-04  2.0557e-04  4.0578e-05  0:09:28  568
   433  2.8362e-05  3.0233e-04  3.6226e-04  3.1559e-04  2.0730e-04  4.0048e-05  0:00:00  567
   434  3.0622e-05  2.9961e-04  3.5866e-04  3.1856e-04  2.1397e-04  4.0121e-05  0:09:26  566
   435  3.0222e-05  3.4420e-04  3.7262e-04  3.5452e-04  2.2718e-04  4.0247e-05  0:09:25  565
   436  2.8356e-05  3.7320e-04  3.9768e-04  3.8368e-04  2.4032e-04  4.0074e-05  0:09:24  564
   437  2.8168e-05  3.3299e-04  3.8440e-04  3.6204e-04  2.5087e-04  4.0473e-05  0:00:00  563
   438  2.8893e-05  3.4711e-04  3.8513e-04  3.7381e-04  2.6180e-04  3.9914e-05  0:09:22  562
   439  3.3659e-05  3.7152e-04  3.9336e-04  3.8916e-04  2.7300e-04  4.1137e-05  0:09:21  561
   440  3.5400e-05  3.6935e-04  4.0615e-04  3.9092e-04  2.6800e-04  3.9970e-05  0:00:00  560

  iter  continuity  x-velocity  y-velocity  z-velocity           k       omega     time/iter
   441  3.3803e-05  3.6258e-04  4.0573e-04  3.9103e-04  2.7292e-04  4.0974e-05  0:09:19  559
   442  3.3603e-05  3.5446e-04  3.9916e-04  3.8637e-04  2.7031e-04  3.9417e-05  0:09:18  558
   443  3.6758e-05  3.5662e-04  3.8095e-04  3.8272e-04  2.5471e-04  4.0890e-05  0:09:17  557
   444  3.5053e-05  3.9957e-04  3.9705e-04  4.0839e-04  2.3741e-04  3.9374e-05  0:00:00  556
   445  3.3431e-05  3.8923e-04  3.8457e-04  3.9258e-04  2.2334e-04  4.0661e-05  0:09:15  555
   446  3.2352e-05  3.2383e-04  3.4386e-04  3.3499e-04  2.0737e-04  3.9058e-05  0:09:14  554
   447  3.2523e-05  3.4611e-04  3.2993e-04  3.5324e-04  1.9510e-04  4.0686e-05  0:09:13  553
   448  3.5837e-05  3.2409e-04  3.2774e-04  3.3400e-04  1.8595e-04  4.0260e-05  0:00:00  552
   449  3.2325e-05  3.0728e-04  3.2431e-04  3.2234e-04  1.7935e-04  4.0807e-05  0:09:11  551
   450  2.8757e-05  2.8562e-04  3.1650e-04  3.0866e-04  1.7538e-04  3.9899e-05  0:09:10  550
   451  2.9672e-05  2.6821e-04  3.0307e-04  3.0341e-04  1.7334e-04  4.0488e-05  0:09:09  549

  iter  continuity  x-velocity  y-velocity  z-velocity           k       omega     time/iter
   452  3.0444e-05  2.9153e-04  3.1050e-04  3.2383e-04  1.7491e-04  4.0721e-05  0:00:00  548
   453  2.8392e-05  3.4276e-04  3.4239e-04  3.6184e-04  1.7799e-04  4.0867e-05  0:09:07  547
   454  2.7233e-05  3.0463e-04  3.3470e-04  3.4170e-04  1.8049e-04  4.0972e-05  0:09:06  546
   455  2.7169e-05  2.7160e-04  3.1511e-04  3.2175e-04  1.8339e-04  4.0456e-05  0:09:05  545
   456  3.0352e-05  3.1309e-04  3.2976e-04  3.4786e-04  1.8979e-04  4.1635e-05  0:00:00  544
   457  3.2977e-05  3.0789e-04  3.3871e-04  3.4326e-04  1.9288e-04  4.0554e-05  0:09:03  543
   458  2.9320e-05  2.9802e-04  3.4598e-04  3.3854e-04  1.9529e-04  4.1580e-05  0:09:02  542
   459  2.8042e-05  2.8865e-04  3.4398e-04  3.3336e-04  1.9811e-04  4.0338e-05  0:00:00  541
   460  3.1556e-05  2.9720e-04  3.4222e-04  3.3617e-04  2.0140e-04  4.2019e-05  0:09:00  540
   461  3.1289e-05  3.4957e-04  3.6122e-04  3.6937e-04  2.0489e-04  4.0950e-05  0:08:59  539
   462  2.9959e-05  3.6527e-04  3.7843e-04  3.8367e-04  2.1051e-04  4.2186e-05  0:08:58  538

  iter  continuity  x-velocity  y-velocity  z-velocity           k       omega     time/iter
   463  2.9649e-05  3.1576e-04  3.5586e-04  3.4500e-04  2.1431e-04  4.0717e-05  0:00:00  537
   464  3.0169e-05  3.3211e-04  3.4454e-04  3.5324e-04  2.1391e-04  4.2776e-05  0:08:56  536
   465  3.4201e-05  3.3678e-04  3.4576e-04  3.5603e-04  2.1430e-04  4.1093e-05  0:08:55  535
   466  3.4334e-05  3.2544e-04  3.5278e-04  3.4953e-04  2.1552e-04  4.1529e-05  0:08:54  534
   467  3.1775e-05  3.1137e-04  3.4993e-04  3.3948e-04  2.1729e-04  4.0056e-05  0:00:00  533
   468  3.0751e-05  3.1054e-04  3.4434e-04  3.3127e-04  2.1408e-04  4.2563e-05  0:08:52  532
   469  3.2866e-05  3.1421e-04  3.3498e-04  3.3242e-04  2.0775e-04  4.1151e-05  0:08:51  531
   470  3.0583e-05  3.6850e-04  3.6518e-04  3.6961e-04  2.0456e-04  4.0722e-05  0:00:00  530
   471  2.8881e-05  3.5496e-04  3.6704e-04  3.5519e-04  1.9741e-04  3.9789e-05  0:08:49  529
   472  2.8156e-05  2.9564e-04  3.3292e-04  3.0877e-04  1.9125e-04  4.3589e-05  0:08:48  528
   473  2.9769e-05  3.3264e-04  3.4256e-04  3.4186e-04  1.8975e-04  4.2547e-05  0:08:47  527

  iter  continuity  x-velocity  y-velocity  z-velocity           k       omega     time/iter
   474  3.3854e-05  3.1153e-04  3.4744e-04  3.3537e-04  1.9195e-04  3.9060e-05  0:00:00  526
   475  3.0159e-05  3.0547e-04  3.5733e-04  3.3625e-04  2.0112e-04  3.8886e-05  0:08:45  525
   476  2.7519e-05  2.9682e-04  3.6088e-04  3.3677e-04  2.1639e-04  4.9384e-05  0:08:44  524
   477  2.9994e-05  2.8988e-04  3.6366e-04  3.4555e-04  2.3938e-04  4.7673e-05  0:08:43  523
   478  3.0576e-05  3.3278e-04  3.8876e-04  3.8240e-04  2.6226e-04  4.1010e-05  0:00:00  522
   479  2.9370e-05  3.7655e-04  4.2220e-04  4.2513e-04  2.8270e-04  4.5319e-05  0:08:41  521
   480  2.9499e-05  3.5541e-04  4.2274e-04  4.1934e-04  3.0209e-04  4.2079e-05  0:08:40  520
   481  3.1263e-05  3.6156e-04  4.1921e-04  4.1850e-04  3.2488e-04  4.1974e-05  0:00:00  519
   482  3.6292e-05  4.0251e-04  4.3985e-04  4.4501e-04  3.1717e-04  4.1548e-05  0:08:38  518
   483  3.9350e-05  4.0981e-04  4.4538e-04  4.4943e-04  3.1140e-04  4.4447e-05  0:08:37  517
   484  3.7383e-05  3.9830e-04  4.3554e-04  4.4095e-04  3.0653e-04  4.2575e-05  0:08:36  516

  iter  continuity  x-velocity  y-velocity  z-velocity           k       omega     time/iter
   485  3.6597e-05  3.9095e-04  4.0911e-04  4.2685e-04  2.8396e-04  4.0661e-05  0:00:00  515
   486  3.8477e-05  3.9120e-04  3.8760e-04  4.0932e-04  2.5959e-04  3.9760e-05  0:08:34  514
   487  3.6726e-05  4.2200e-04  3.8867e-04  4.1161e-04  2.3465e-04  4.6952e-05  0:08:33  513
   488  3.4235e-05  4.1546e-04  3.8778e-04  3.9938e-04  2.1186e-04  4.4114e-05  0:08:32  512
   489  3.2816e-05  3.5001e-04  3.4466e-04  3.4331e-04  1.9503e-04  3.9699e-05  0:00:00  511
   490  3.1898e-05  3.6480e-04  3.2981e-04  3.4851e-04  1.8582e-04  3.9615e-05  0:08:30  510
   491  3.4845e-05  3.4626e-04  3.1864e-04  3.3287e-04  1.8056e-04  3.9016e-05  0:08:29  509
   492  3.2817e-05  3.2228e-04  3.2204e-04  3.2040e-04  1.7297e-04  4.0875e-05  0:08:28  508
   493  2.9237e-05  2.9925e-04  3.1209e-04  3.0442e-04  1.6557e-04  4.3105e-05  0:00:00  507
   494  2.8636e-05  2.8268e-04  3.0383e-04  2.9263e-04  1.6217e-04  3.8918e-05  0:08:26  506
   495  3.0487e-05  2.9138e-04  2.9289e-04  3.0170e-04  1.6443e-04  4.0292e-05  0:08:25  505

  iter  continuity  x-velocity  y-velocity  z-velocity           k       omega     time/iter
   496  2.8310e-05  3.4327e-04  3.3164e-04  3.4740e-04  1.6914e-04  4.2346e-05  0:08:24  504
   497  2.7019e-05  3.2234e-04  3.2793e-04  3.3616e-04  1.7132e-04  4.1949e-05  0:00:00  503
   498  2.6802e-05  2.7097e-04  2.9822e-04  2.9682e-04  1.7514e-04  3.9021e-05  0:08:22  502
   499  2.9654e-05  3.0928e-04  3.0626e-04  3.2765e-04  1.8315e-04  3.9770e-05  0:08:21  501
   500  3.3530e-05  2.9809e-04  3.2010e-04  3.1880e-04  1.9017e-04  4.6099e-05  0:00:00  500
   501  2.9969e-05  2.8887e-04  3.2968e-04  3.1248e-04  1.9671e-04  4.4184e-05  0:08:19  499
   502  2.7292e-05  2.7951e-04  3.2988e-04  3.0535e-04  2.0404e-04  3.9633e-05  0:08:18  498
   503  3.0142e-05  2.7433e-04  3.2646e-04  3.0736e-04  2.1130e-04  4.1176e-05  0:08:17  497
   504  3.0986e-05  3.1792e-04  3.4678e-04  3.3754e-04  2.1939e-04  4.1608e-05  0:00:00  496
   505  3.0249e-05  3.5726e-04  3.7470e-04  3.6584e-04  2.2630e-04  3.9206e-05  0:08:15  495
   506  3.0331e-05  3.1269e-04  3.5913e-04  3.3684e-04  2.2661e-04  4.0999e-05  0:08:14  494

  iter  continuity  x-velocity  y-velocity  z-velocity           k       omega     time/iter
   507  3.1268e-05  3.0434e-04  3.4623e-04  3.3488e-04  2.2859e-04  4.0336e-05  0:00:00  493
   508  3.4745e-05  3.3189e-04  3.5494e-04  3.4976e-04  2.3301e-04  4.2042e-05  0:08:12  492
   509  3.5747e-05  3.2871e-04  3.6232e-04  3.4227e-04  2.3361e-04  3.8232e-05  0:08:11  491
   510  3.2807e-05  3.1657e-04  3.6309e-04  3.3251e-04  2.3543e-04  3.9798e-05  0:08:10  490
   511  3.2556e-05  3.0439e-04  3.5963e-04  3.2063e-04  2.3865e-04  3.8460e-05  0:00:00  489
   512  3.5834e-05  3.1180e-04  3.5417e-04  3.1691e-04  2.3849e-04  3.9503e-05  0:08:08  488
   513  3.4279e-05  3.6861e-04  3.8021e-04  3.5189e-04  2.3264e-04  3.8778e-05  0:08:07  487
   514  3.2457e-05  3.6082e-04  3.8114e-04  3.5075e-04  2.2275e-04  3.9639e-05  0:08:06  486
   515  3.1449e-05  2.9563e-04  3.5499e-04  3.0062e-04  2.1226e-04  3.8107e-05  0:00:00  485
   516  3.1295e-05  3.3056e-04  3.4811e-04  3.2556e-04  2.0770e-04  3.9455e-05  0:08:04  484
   517  3.4849e-05  3.1532e-04  3.4770e-04  3.0701e-04  2.0441e-04  3.8138e-05  0:08:03  483

  iter  continuity  x-velocity  y-velocity  z-velocity           k       omega     time/iter
   518  3.1830e-05  3.0401e-04  3.5164e-04  2.9744e-04  1.9755e-04  3.8457e-05  0:08:02  482
   519  2.8472e-05  2.9006e-04  3.4653e-04  2.8793e-04  1.9427e-04  3.7820e-05  0:00:00  481
   520  2.8710e-05  2.8923e-04  3.4669e-04  2.8754e-04  1.9393e-04  3.7721e-05  0:08:00  480
   521  3.0013e-05  3.0776e-04  3.4598e-04  3.1131e-04  1.9667e-04  3.7969e-05  0:07:59  479
   522  2.8146e-05  3.5638e-04  3.8261e-04  3.6093e-04  2.0596e-04  3.7897e-05  0:07:58  478
   523  2.7628e-05  3.3749e-04  3.8144e-04  3.5498e-04  2.1725e-04  3.8312e-05  0:00:00  477
   524  2.8230e-05  3.0819e-04  3.7253e-04  3.4259e-04  2.3777e-04  3.7520e-05  0:07:56  476
   525  3.2093e-05  3.5412e-04  3.9345e-04  3.8431e-04  2.6075e-04  3.8942e-05  0:07:55  475
   526  3.5515e-05  3.5111e-04  4.1964e-04  3.9302e-04  2.7582e-04  3.8398e-05  0:07:54  474
   527  3.2287e-05  3.5231e-04  4.3193e-04  4.0229e-04  2.8787e-04  3.9543e-05  0:00:00  473
   528  3.1291e-05  3.5823e-04  4.3817e-04  4.1176e-04  3.1018e-04  3.9650e-05  0:07:52  472

  iter  continuity  x-velocity  y-velocity  z-velocity           k       omega     time/iter
   529  3.5472e-05  3.7141e-04  4.3478e-04  4.2027e-04  3.1742e-04  4.0712e-05  0:07:51  471
   530  3.6583e-05  4.2007e-04  4.5663e-04  4.4863e-04  3.0358e-04  4.0141e-05  0:07:50  470
   531  3.6775e-05  4.3919e-04  4.6594e-04  4.6735e-04  2.8957e-04  4.1090e-05  0:00:00  469
   532  3.6831e-05  3.9790e-04  4.3201e-04  4.4119e-04  2.8116e-04  4.1839e-05  0:07:48  468
   533  3.6953e-05  3.9619e-04  3.9826e-04  4.3660e-04  2.6621e-04  4.1770e-05  0:07:47  467
   534  3.9198e-05  3.9832e-04  3.8995e-04  4.2286e-04  2.4318e-04  4.1188e-05  0:07:46  466
   535  3.7988e-05  3.8409e-04  3.8060e-04  3.8857e-04  2.1867e-04  4.1482e-05  0:00:00  465
   536  3.3785e-05  3.5162e-04  3.6785e-04  3.5390e-04  1.9925e-04  4.3563e-05  0:07:44  464
   537  3.1700e-05  3.2406e-04  3.4921e-04  3.3036e-04  1.8551e-04  4.2760e-05  0:07:43  463
   538  3.3442e-05  3.2154e-04  3.3705e-04  3.2402e-04  1.7659e-04  4.1547e-05  0:00:00  462
   539  3.0594e-05  3.7197e-04  3.6211e-04  3.6424e-04  1.7201e-04  4.1827e-05  0:07:41  461

  iter  continuity  x-velocity  y-velocity  z-velocity           k       omega     time/iter
   540  2.8204e-05  3.5901e-04  3.6497e-04  3.5845e-04  1.6947e-04  4.4842e-05  0:07:40  460
   541  2.7590e-05  2.9877e-04  3.3253e-04  3.1095e-04  1.6854e-04  4.3568e-05  0:07:39  459
   542  2.8888e-05  3.5431e-04  3.4531e-04  3.3710e-04  1.7247e-04  3.9878e-05  0:00:00  458
   543  3.3057e-05  3.4922e-04  3.4990e-04  3.1608e-04  1.7279e-04  3.9084e-05  0:07:37  457
   544  2.9181e-05  3.2134e-04  3.5775e-04  3.0318e-04  1.7345e-04  4.7528e-05  0:07:36  456
   545  2.6276e-05  3.0672e-04  3.5353e-04  2.9099e-04  1.7572e-04  4.4864e-05  0:07:35  455
   546  2.7955e-05  3.0214e-04  3.4674e-04  2.8552e-04  1.7845e-04  3.7617e-05  0:00:00  454
   547  2.8636e-05  3.3332e-04  3.5146e-04  3.0740e-04  1.8217e-04  3.8336e-05  0:07:33  453
   548  2.7101e-05  3.7115e-04  3.7686e-04  3.4085e-04  1.8639e-04  3.9211e-05  0:07:32  452
   549  2.6886e-05  3.3919e-04  3.6259e-04  3.1470e-04  1.8738e-04  4.4373e-05  0:00:00  451
   550  2.7392e-05  3.2266e-04  3.4717e-04  2.9557e-04  1.8820e-04  4.6784e-05  0:00:00  450

  iter  continuity  x-velocity  y-velocity  z-velocity           k       omega     time/iter
   551  3.1073e-05  3.4747e-04  3.4890e-04  3.1926e-04  1.9007e-04  3.9605e-05  0:07:29  449
   552  3.3241e-05  3.3730e-04  3.5262e-04  3.1090e-04  1.9153e-04  4.1273e-05  0:07:28  448
   553  2.9651e-05  3.2589e-04  3.4971e-04  3.0165e-04  1.9364e-04  3.8317e-05  0:00:00  447
   554  2.7944e-05  3.1556e-04  3.3907e-04  2.8985e-04  1.9444e-04  4.2951e-05  0:07:26  446
   555  3.0931e-05  3.1526e-04  3.2833e-04  2.8753e-04  1.9327e-04  4.3186e-05  0:07:25  445
   556  3.0241e-05  3.5838e-04  3.4537e-04  3.2327e-04  1.9075e-04  4.0935e-05  0:07:24  444
   557  2.8751e-05  3.7285e-04  3.5995e-04  3.3474e-04  1.8795e-04  4.0106e-05  0:00:00  443
   558  2.8005e-05  3.1508e-04  3.2779e-04  2.8602e-04  1.8488e-04  4.7627e-05  0:07:22  442
   559  2.7883e-05  3.2495e-04  3.2347e-04  3.0037e-04  1.8354e-04  4.5450e-05  0:07:21  441
   560  3.1562e-05  3.2444e-04  3.2225e-04  3.0017e-04  1.8254e-04  4.2259e-05  0:07:20  440
   561  3.0452e-05  3.1675e-04  3.3264e-04  2.9619e-04  1.8248e-04  4.2758e-05  0:00:00  439

  iter  continuity  x-velocity  y-velocity  z-velocity           k       omega     time/iter
   562  2.6844e-05  3.0376e-04  3.2880e-04  2.8919e-04  1.8472e-04  4.2493e-05  0:07:18  438
   563  2.6520e-05  2.9400e-04  3.2417e-04  2.8752e-04  1.8964e-04  3.9641e-05  0:07:17  437
   564  2.9461e-05  3.1057e-04  3.2562e-04  3.0465e-04  1.9962e-04  4.0778e-05  0:07:16  436
   565  2.7600e-05  3.7476e-04  3.6670e-04  3.5843e-04  2.1378e-04  4.0525e-05  0:00:00  435
   566  2.6687e-05  3.5963e-04  3.7145e-04  3.5746e-04  2.2199e-04  4.1698e-05  0:07:14  434
   567  2.7612e-05  3.1151e-04  3.4552e-04  3.2813e-04  2.3153e-04  4.1923e-05  0:07:13  433
   568  3.0930e-05  3.5670e-04  3.6106e-04  3.6738e-04  2.4033e-04  4.0088e-05  0:07:12  432
   569  3.5642e-05  3.5099e-04  3.6353e-04  3.6574e-04  2.4551e-04  4.0175e-05  0:00:00  431
   570  3.2542e-05  3.4671e-04  3.7008e-04  3.6068e-04  2.4347e-04  3.9559e-05  0:07:10  430
   571  3.0720e-05  3.3558e-04  3.6113e-04  3.4917e-04  2.3427e-04  3.9891e-05  0:07:09  429
   572  3.3034e-05  3.3199e-04  3.5363e-04  3.3919e-04  2.2321e-04  3.8998e-05  0:00:00  428

  iter  continuity  x-velocity  y-velocity  z-velocity           k       omega     time/iter
   573  3.3291e-05  3.5906e-04  3.5047e-04  3.5341e-04  2.1348e-04  4.0076e-05  0:07:07  427
   574  3.1413e-05  3.8248e-04  3.6813e-04  3.7112e-04  2.0298e-04  3.9240e-05  0:07:06  426
   575  3.0182e-05  3.4000e-04  3.3955e-04  3.3360e-04  1.8975e-04  4.0037e-05  0:07:05  425
   576  2.9510e-05  3.2123e-04  3.1545e-04  3.1418e-04  1.7859e-04  3.8629e-05  0:00:00  424
   577  3.2346e-05  3.3840e-04  3.1090e-04  3.2413e-04  1.7308e-04  4.0235e-05  0:07:03  423
   578  3.3128e-05  3.2022e-04  3.1604e-04  3.1057e-04  1.6880e-04  3.9266e-05  0:07:02  422
   579  2.9184e-05  3.0017e-04  3.1054e-04  2.9793e-04  1.6528e-04  4.0487e-05  0:00:00  421
   580  2.7052e-05  2.8601e-04  3.0450e-04  2.8614e-04  1.6186e-04  3.8907e-05  0:07:00  420
   581  2.9987e-05  2.7570e-04  2.8780e-04  2.8694e-04  1.6087e-04  3.9721e-05  0:06:59  419
   582  2.8396e-05  3.2640e-04  3.1847e-04  3.2901e-04  1.6395e-04  3.8890e-05  0:06:58  418
   583  2.6706e-05  3.2983e-04  3.2711e-04  3.3790e-04  1.6766e-04  3.9213e-05  0:00:00  417

  iter  continuity  x-velocity  y-velocity  z-velocity           k       omega     time/iter
   584  2.5963e-05  2.5949e-04  3.0079e-04  2.8941e-04  1.6996e-04  3.7775e-05  0:06:56  416
   585  2.5846e-05  2.9292e-04  2.9763e-04  3.1696e-04  1.7552e-04  3.8843e-05  0:06:55  415
   586  3.0695e-05  2.8007e-04  3.0712e-04  3.1201e-04  1.8276e-04  3.9132e-05  0:06:54  414
   587  2.9269e-05  2.7949e-04  3.2078e-04  3.1277e-04  1.8828e-04  3.8958e-05  0:00:00  413
   588  2.6779e-05  2.6503e-04  3.2218e-04  3.0794e-04  1.9035e-04  3.8008e-05  0:06:52  412
   589  2.7968e-05  2.5435e-04  3.1878e-04  3.0612e-04  1.9386e-04  3.7692e-05  0:06:51  411
   590  3.0801e-05  2.7908e-04  3.1956e-04  3.2243e-04  1.9888e-04  3.9148e-05  0:00:00  410
   591  2.9582e-05  3.4098e-04  3.5309e-04  3.6692e-04  2.0532e-04  3.8355e-05  0:06:49  409
   592  2.8547e-05  3.2213e-04  3.4972e-04  3.5406e-04  2.1197e-04  3.7575e-05  0:06:48  408
   593  2.8980e-05  2.7391e-04  3.2138e-04  3.2223e-04  2.1357e-04  3.6873e-05  0:06:47  407
   594  3.2257e-05  3.1934e-04  3.3095e-04  3.5163e-04  2.1531e-04  4.0206e-05  0:00:00  406

  iter  continuity  x-velocity  y-velocity  z-velocity           k       omega     time/iter
   595  3.5985e-05  3.1209e-04  3.3978e-04  3.4188e-04  2.1979e-04  3.8577e-05  0:06:45  405
   596  3.2728e-05  2.9535e-04  3.4605e-04  3.3090e-04  2.2551e-04  3.7530e-05  0:06:44  404
   597  3.0438e-05  2.8619e-04  3.4382e-04  3.1919e-04  2.2659e-04  3.6792e-05  0:00:00  403
   598  3.2594e-05  2.8284e-04  3.3530e-04  3.1567e-04  2.1866e-04  4.1994e-05  0:06:42  402
   599  3.1966e-05  3.2682e-04  3.4605e-04  3.4406e-04  2.1226e-04  4.0119e-05  0:06:41  401
   600  3.0014e-05  3.5243e-04  3.6581e-04  3.6606e-04  2.0977e-04  3.8023e-05  0:06:40  400
   601  2.9220e-05  3.0181e-04  3.4602e-04  3.2741e-04  2.0693e-04  3.7284e-05  0:00:00  399
   602  2.8809e-05  3.0616e-04  3.3512e-04  3.2365e-04  2.0562e-04  4.6638e-05  0:06:38  398
   603  3.1991e-05  3.2271e-04  3.4050e-04  3.3608e-04  2.0462e-04  4.3589e-05  0:06:37  397
   604  3.2257e-05  3.1351e-04  3.5068e-04  3.3347e-04  2.0107e-04  3.8346e-05  0:06:36  396
   605  2.8795e-05  3.0160e-04  3.5475e-04  3.3178e-04  1.9955e-04  3.8469e-05  0:00:00  395

  iter  continuity  x-velocity  y-velocity  z-velocity           k       omega     time/iter
   606  2.7613e-05  2.9124e-04  3.5670e-04  3.3390e-04  2.0373e-04  3.8369e-05  0:06:34  394
   607  3.1259e-05  3.0085e-04  3.5637e-04  3.4919e-04  2.1262e-04  3.9625e-05  0:06:33  393
   608  3.0259e-05  3.6236e-04  3.9640e-04  4.0087e-04  2.2873e-04  4.0838e-05  0:00:00  392
   609  2.9612e-05  3.7190e-04  4.1444e-04  4.1533e-04  2.5460e-04  4.2960e-05  0:06:31  391
   610  2.9996e-05  3.3054e-04  4.1029e-04  3.9660e-04  2.8216e-04  4.2353e-05  0:06:30  390
   611  3.1604e-05  3.7610e-04  4.3337e-04  4.4007e-04  3.0096e-04  4.0071e-05  0:06:29  389
   612  3.6303e-05  3.7387e-04  4.5290e-04  4.4995e-04  3.1948e-04  3.9895e-05  0:00:00  388
   613  3.4556e-05  3.8558e-04  4.6620e-04  4.6814e-04  3.5406e-04  4.9358e-05  0:06:27  387
   614  3.3743e-05  4.0143e-04  4.7525e-04  4.7045e-04  3.6098e-04  4.6373e-05  0:06:26  386
   615  3.6958e-05  4.1567e-04  4.7753e-04  4.7112e-04  3.3563e-04  4.1342e-05  0:06:25  385
   616  3.9914e-05  4.3663e-04  4.6657e-04  4.8283e-04  3.1462e-04  4.1792e-05  0:00:00  384

  iter  continuity  x-velocity  y-velocity  z-velocity           k       omega     time/iter
   617  3.9483e-05  4.7329e-04  4.6653e-04  5.0400e-04  3.0924e-04  4.0297e-05  0:06:23  383
   618  3.8595e-05  4.4044e-04  4.3954e-04  4.7337e-04  2.8550e-04  4.6787e-05  0:06:22  382
   619  3.7555e-05  4.0908e-04  4.0309e-04  4.3199e-04  2.5301e-04  4.6984e-05  0:00:00  381
   620  3.8652e-05  4.2148e-04  3.9255e-04  4.1375e-04  2.2487e-04  3.8977e-05  0:06:20  380
   621  3.9100e-05  3.9120e-04  3.7610e-04  3.7597e-04  2.0625e-04  4.0065e-05  0:06:19  379
   622  3.4213e-05  3.6091e-04  3.6743e-04  3.4724e-04  1.9049e-04  5.2759e-05  0:06:18  378
   623  3.1313e-05  3.3308e-04  3.5111e-04  3.2201e-04  1.7914e-04  5.0451e-05  0:00:00  377
   624  3.2664e-05  3.2336e-04  3.3776e-04  3.0809e-04  1.7312e-04  3.9270e-05  0:06:16  376
   625  3.0894e-05  3.5578e-04  3.4780e-04  3.3009e-04  1.6607e-04  4.5443e-05  0:06:15  375
   626  2.8346e-05  3.5837e-04  3.6116e-04  3.3962e-04  1.6284e-04  4.0937e-05  0:06:14  374
   627  2.6965e-05  2.9782e-04  3.3292e-04  2.9224e-04  1.6090e-04  4.3909e-05  0:00:00  373

  iter  continuity  x-velocity  y-velocity  z-velocity           k       omega     time/iter
   628  2.6681e-05  3.0815e-04  3.2274e-04  3.0020e-04  1.6423e-04  4.2692e-05  0:06:12  372
   629  3.0565e-05  3.1322e-04  3.2285e-04  3.0304e-04  1.6987e-04  4.0243e-05  0:06:11  371
   630  3.0098e-05  3.0201e-04  3.3283e-04  2.9653e-04  1.7358e-04  4.0497e-05  0:06:10  370
   631  2.6877e-05  2.8816e-04  3.2996e-04  2.8651e-04  1.7892e-04  4.3817e-05  0:00:00  369
   632  2.6475e-05  2.8718e-04  3.2989e-04  2.8003e-04  1.8346e-04  4.3439e-05  0:06:08  368
   633  3.0028e-05  2.9342e-04  3.2095e-04  2.8677e-04  1.8907e-04  3.8831e-05  0:06:07  367
   634  2.8649e-05  3.5610e-04  3.5913e-04  3.3898e-04  1.9750e-04  4.1145e-05  0:00:00  366
   635  2.7600e-05  3.5036e-04  3.6100e-04  3.3449e-04  2.0320e-04  3.9856e-05  0:06:05  365
   636  2.8318e-05  3.0242e-04  3.3290e-04  2.9341e-04  2.0859e-04  4.3910e-05  0:06:04  364
   637  3.1052e-05  3.4838e-04  3.4199e-04  3.3165e-04  2.1595e-04  4.2730e-05  0:06:03  363
   638  3.5850e-05  3.3859e-04  3.5031e-04  3.2704e-04  2.1924e-04  4.0354e-05  0:00:00  362

  iter  continuity  x-velocity  y-velocity  z-velocity           k       omega     time/iter
   639  3.2895e-05  3.3742e-04  3.5894e-04  3.2422e-04  2.2040e-04  3.9012e-05  0:06:01  361
   640  3.0764e-05  3.3102e-04  3.5504e-04  3.1617e-04  2.2130e-04  4.1202e-05  0:06:00  360
   641  3.3033e-05  3.2151e-04  3.4892e-04  3.1389e-04  2.2463e-04  4.1247e-05  0:05:59  359
   642  3.3554e-05  3.5155e-04  3.5896e-04  3.3741e-04  2.2943e-04  4.3946e-05  0:00:00  358
   643  3.2338e-05  3.8341e-04  3.8392e-04  3.6497e-04  2.2900e-04  4.0096e-05  0:05:57  357
   644  3.1847e-05  3.4481e-04  3.6500e-04  3.3531e-04  2.2641e-04  4.1300e-05  0:05:56  356
   645  3.2380e-05  3.2207e-04  3.4556e-04  3.1612e-04  2.2256e-04  3.9397e-05  0:05:55  355
   646  3.5090e-05  3.4706e-04  3.4892e-04  3.3156e-04  2.1976e-04  4.0499e-05  0:00:00  354
   647  3.5846e-05  3.4333e-04  3.5835e-04  3.1928e-04  2.1279e-04  3.8951e-05  0:05:53  353
   648  3.1541e-05  3.2219e-04  3.5374e-04  3.0428e-04  2.0482e-04  3.9963e-05  0:05:52  352
   649  2.9239e-05  3.0723e-04  3.4948e-04  2.9100e-04  1.9756e-04  3.8851e-05  0:00:00  351

  iter  continuity  x-velocity  y-velocity  z-velocity           k       omega     time/iter
   650  3.1456e-05  3.0824e-04  3.3884e-04  2.8837e-04  1.9228e-04  3.9682e-05  0:05:50  350
   651  2.9877e-05  3.5695e-04  3.5962e-04  3.2570e-04  1.9148e-04  3.9315e-05  0:05:49  349
   652  2.7700e-05  3.6673e-04  3.7293e-04  3.3754e-04  1.9128e-04  3.9627e-05  0:05:48  348
   653  2.7165e-05  3.0848e-04  3.4798e-04  2.9401e-04  1.9329e-04  3.9314e-05  0:00:00  347
   654  2.7245e-05  3.4202e-04  3.4939e-04  3.2134e-04  2.0211e-04  3.9227e-05  0:05:46  346
   655  3.1769e-05  3.4097e-04  3.5242e-04  3.2627e-04  2.1433e-04  3.9632e-05  0:05:45  345
   656  3.0797e-05  3.3154e-04  3.7114e-04  3.3142e-04  2.2508e-04  3.8854e-05  0:05:44  344
   657  2.8470e-05  3.2398e-04  3.7192e-04  3.3414e-04  2.3346e-04  3.9610e-05  0:00:00  343
   658  2.9473e-05  3.2404e-04  3.7744e-04  3.3742e-04  2.4737e-04  3.8547e-05  0:05:42  342
   659  3.2993e-05  3.4319e-04  3.7343e-04  3.5022e-04  2.4377e-04  4.0000e-05  0:05:41  341
   660  3.2491e-05  3.9148e-04  4.0597e-04  3.9416e-04  2.4518e-04  3.8694e-05  0:00:00  340

  iter  continuity  x-velocity  y-velocity  z-velocity           k       omega     time/iter
   661  3.2393e-05  3.7641e-04  3.9729e-04  3.9042e-04  2.4729e-04  3.9911e-05  0:05:39  339
   662  3.2430e-05  3.3579e-04  3.6853e-04  3.5844e-04  2.3830e-04  3.8122e-05  0:05:38  338
   663  3.4505e-05  3.6330e-04  3.5693e-04  3.7717e-04  2.2561e-04  3.9778e-05  0:05:37  337
   664  3.7319e-05  3.4330e-04  3.5327e-04  3.5384e-04  2.1192e-04  3.8612e-05  0:00:00  336
   665  3.3040e-05  3.2303e-04  3.4005e-04  3.3132e-04  1.9829e-04  3.9633e-05  0:05:35  335
   666  2.9817e-05  3.0127e-04  3.2805e-04  3.0862e-04  1.8739e-04  3.9881e-05  0:05:34  334
   667  3.1239e-05  2.8644e-04  3.0822e-04  2.9830e-04  1.7688e-04  4.0413e-05  0:05:33  333
   668  3.0556e-05  3.1968e-04  3.1972e-04  3.2065e-04  1.7321e-04  4.0068e-05  0:00:00  332
   669  2.8104e-05  3.5471e-04  3.4173e-04  3.4576e-04  1.7184e-04  4.0721e-05  0:05:31  331
   670  2.6590e-05  3.0634e-04  3.2388e-04  3.1052e-04  1.6991e-04  4.1347e-05  0:05:30  330
   671  2.6343e-05  2.9230e-04  3.0584e-04  3.0571e-04  1.7012e-04  4.0936e-05  0:00:00  329

  iter  continuity  x-velocity  y-velocity  z-velocity           k       omega     time/iter
   672  2.9929e-05  3.1744e-04  3.1829e-04  3.2553e-04  1.7415e-04  4.1383e-05  0:05:28  328
   673  3.0887e-05  3.1060e-04  3.2600e-04  3.2341e-04  1.7589e-04  4.0664e-05  0:05:27  327
   674  2.6896e-05  2.9492e-04  3.3031e-04  3.1815e-04  1.7836e-04  4.2424e-05  0:05:26  326
   675  2.5680e-05  2.8194e-04  3.2777e-04  3.1246e-04  1.8001e-04  4.1069e-05  0:00:00  325
   676  2.9455e-05  2.9117e-04  3.2722e-04  3.1591e-04  1.8325e-04  4.1822e-05  0:05:24  324
   677  2.8310e-05  3.5464e-04  3.5694e-04  3.5726e-04  1.8725e-04  4.0728e-05  0:05:23  323
   678  2.7155e-05  3.5667e-04  3.6764e-04  3.6363e-04  1.8999e-04  4.2803e-05  0:05:22  322
   679  2.7206e-05  3.0540e-04  3.4002e-04  3.1980e-04  1.8934e-04  4.0888e-05  0:00:00  321
   680  2.7940e-05  3.5289e-04  3.4044e-04  3.4753e-04  1.9403e-04  4.0619e-05  0:05:20  320
   681  3.2653e-05  3.4149e-04  3.4086e-04  3.3826e-04  1.9970e-04  3.9231e-05  0:05:19  319
   682  3.0724e-05  3.2404e-04  3.5054e-04  3.3500e-04  2.0036e-04  4.2609e-05  0:05:18  318

  iter  continuity  x-velocity  y-velocity  z-velocity           k       omega     time/iter
   683  2.8512e-05  3.0922e-04  3.4641e-04  3.2756e-04  1.9707e-04  4.0467e-05  0:00:00  317
   684  2.9619e-05  3.0956e-04  3.3969e-04  3.2296e-04  1.9578e-04  3.9216e-05  0:05:16  316
   685  3.1381e-05  3.2642e-04  3.3496e-04  3.3697e-04  1.9814e-04  3.8492e-05  0:05:15  315
   686  2.9285e-05  3.6955e-04  3.6394e-04  3.7389e-04  2.0223e-04  4.5574e-05  0:05:14  314
   687  2.7651e-05  3.4339e-04  3.5601e-04  3.4878e-04  2.0021e-04  4.3430e-05  0:00:00  313
   688  2.7174e-05  2.9933e-04  3.2586e-04  3.0429e-04  1.8840e-04  3.9205e-05  0:05:12  312
   689  2.9931e-05  3.3144e-04  3.3330e-04  3.2600e-04  1.8326e-04  3.8414e-05  0:05:11  311
   690  3.2643e-05  3.1094e-04  3.3537e-04  3.1676e-04  1.8155e-04  4.1720e-05  0:00:00  310
   691  2.8241e-05  2.9696e-04  3.4199e-04  3.1233e-04  1.8336e-04  4.2171e-05  0:05:09  309
   692  2.5712e-05  2.8514e-04  3.3723e-04  3.0770e-04  1.9088e-04  4.0315e-05  0:05:08  308
   693  2.8748e-05  2.7434e-04  3.2962e-04  3.1402e-04  2.0367e-04  4.0900e-05  0:05:07  307

[...]
   937  3.9440e-05  4.8708e-04  4.1814e-04  4.8274e-04  5.5396e-04  8.1721e-05  0:01:03   63
   938  4.0042e-05  4.9290e-04  4.4043e-04  4.7372e-04  5.9669e-04  8.4642e-05  0:01:02   62
   939  3.9247e-05  4.9672e-04  4.8002e-04  4.4028e-04  5.9349e-04  8.9328e-05  0:01:01   61
   940  4.3013e-05  4.6937e-04  4.1602e-04  4.1918e-04  5.9985e-04  8.3557e-05  0:00:00   60
   941  3.9954e-05  4.5859e-04  3.8318e-04  4.0823e-04  5.5682e-04  8.5107e-05  0:00:59   59
   942  4.2347e-05  5.0904e-04  4.4645e-04  4.2795e-04  6.2946e-04  8.6952e-05  0:00:58   58
   943  4.0972e-05  4.9561e-04  4.7068e-04  4.3922e-04  5.2135e-04  8.9361e-05  0:00:00   57
   944  3.7131e-05  4.9009e-04  4.1364e-04  4.1393e-04  6.0563e-04  8.9014e-05  0:00:00   56
   945  3.9847e-05  4.7070e-04  4.0104e-04  4.2408e-04  5.1339e-04  8.3007e-05  0:00:55   55
   946  4.1724e-05  4.9285e-04  4.8265e-04  4.3420e-04  5.5877e-04  8.6916e-05  0:00:54   54

  iter  continuity  x-velocity  y-velocity  z-velocity           k       omega     time/iter
   947  3.9811e-05  5.0950e-04  4.1724e-04  4.3200e-04  5.6810e-04  9.1616e-05  0:00:00   53
   948  3.9542e-05  4.8413e-04  3.8332e-04  4.2170e-04  5.7286e-04  8.4893e-05  0:00:52   52
   949  3.7807e-05  4.7887e-04  4.2803e-04  4.2478e-04  5.4176e-04  8.5594e-05  0:00:51   51
   950  3.8940e-05  5.3440e-04  4.3343e-04  4.5154e-04  6.1959e-04  8.6899e-05  0:00:50   50
   951  3.5886e-05  5.3851e-04  4.7366e-04  4.9504e-04  5.2503e-04  8.8609e-05  0:00:00   49
   952  3.4191e-05  5.5553e-04  5.3964e-04  5.6380e-04  6.1799e-04  8.8030e-05  0:00:48   48
   953  3.9709e-05  4.9211e-04  4.8280e-04  5.4603e-04  5.4994e-04  8.2753e-05  0:00:47   47
   954  4.0475e-05  5.2338e-04  4.3669e-04  4.9618e-04  6.0841e-04  8.5155e-05  0:00:00   46
   955  3.8790e-05  5.5095e-04  4.2588e-04  4.8767e-04  6.2668e-04  8.9848e-05  0:00:45   45
   956  4.3666e-05  5.3675e-04  4.2050e-04  4.8862e-04  6.6729e-04  8.4464e-05  0:00:44   44
   957  4.0222e-05  5.2686e-04  3.9683e-04  4.9362e-04  6.3971e-04  8.6106e-05  0:00:43   43

  iter  continuity  x-velocity  y-velocity  z-velocity           k       omega     time/iter
   958  4.1067e-05  5.6889e-04  4.1818e-04  5.1981e-04  7.5641e-04  8.8925e-05  0:00:00   42
   959  3.9805e-05  5.5788e-04  4.8275e-04  5.4131e-04  6.7519e-04  9.0851e-05  0:00:41   41
   960  3.9557e-05  5.4953e-04  4.2297e-04  5.1949e-04  7.8779e-04  9.0381e-05  0:00:40   40
   961  4.1088e-05  5.4892e-04  4.0916e-04  5.3406e-04  7.0381e-04  8.6522e-05  0:00:39   39
   962  4.2444e-05  5.6710e-04  4.6740e-04  5.5215e-04  7.6530e-04  8.8051e-05  0:00:00   38
   963  4.1335e-05  5.6529e-04  4.4604e-04  5.4009e-04  7.3634e-04  9.1697e-05  0:00:37   37
   964  4.2927e-05  5.4043e-04  4.0135e-04  5.1905e-04  7.8842e-04  8.5201e-05  0:00:36   36
   965  4.0592e-05  5.3577e-04  4.2053e-04  5.2378e-04  7.0296e-04  8.5725e-05  0:00:00   35
   966  4.3477e-05  5.6894e-04  4.7533e-04  5.3719e-04  7.9905e-04  8.8545e-05  0:00:34   34
   967  4.2262e-05  5.4213e-04  4.5283e-04  5.2792e-04  6.4749e-04  8.9170e-05  0:00:33   33
   968  3.8954e-05  5.2163e-04  4.2261e-04  4.9504e-04  7.2590e-04  8.7712e-05  0:00:32   32

  iter  continuity  x-velocity  y-velocity  z-velocity           k       omega     time/iter
   969  4.2983e-05  5.1823e-04  4.7050e-04  5.1164e-04  6.1793e-04  8.4882e-05  0:00:00   31
   970  4.2232e-05  5.1800e-04  4.5166e-04  5.1977e-04  6.6149e-04  8.5678e-05  0:00:30   30
   971  3.9286e-05  5.0856e-04  4.3482e-04  5.1376e-04  6.1496e-04  8.9089e-05  0:00:29   29
   972  4.2988e-05  4.9881e-04  4.8192e-04  5.2776e-04  6.4062e-04  8.3403e-05  0:00:28   28
   973  4.1905e-05  4.9859e-04  4.6086e-04  5.4872e-04  5.5141e-04  8.4086e-05  0:00:00   27
   974  4.2206e-05  5.2661e-04  4.5704e-04  5.2273e-04  6.4733e-04  8.8024e-05  0:00:26   26
   975  4.1439e-05  4.8872e-04  4.7433e-04  4.9123e-04  5.0929e-04  8.7086e-05  0:00:25   25
   976  4.0328e-05  4.6718e-04  4.5164e-04  4.4554e-04  6.0662e-04  8.5112e-05  0:00:00   24
   977  4.2767e-05  4.8617e-04  4.5401e-04  4.6131e-04  5.1976e-04  8.3728e-05  0:00:23   23
   978  4.2386e-05  4.7595e-04  4.4994e-04  4.4468e-04  5.7208e-04  8.4330e-05  0:00:22   22
   979  4.0923e-05  4.6973e-04  4.8205e-04  4.2038e-04  5.6469e-04  8.9225e-05  0:00:21   21

  iter  continuity  x-velocity  y-velocity  z-velocity           k       omega     time/iter
   980  4.5199e-05  4.6649e-04  4.2724e-04  4.2297e-04  6.1650e-04  8.4834e-05  0:00:00   20
   981  4.0810e-05  4.7591e-04  4.3209e-04  4.3661e-04  5.3719e-04  8.5494e-05  0:00:19   19
   982  4.1856e-05  5.1961e-04  4.9463e-04  4.3928e-04  6.4780e-04  9.0258e-05  0:00:18   18
   983  4.1734e-05  4.9141e-04  4.6331e-04  4.3205e-04  5.1118e-04  8.7186e-05  0:00:17   17
   984  3.8548e-05  4.9265e-04  4.2195e-04  4.2189e-04  6.0545e-04  8.4354e-05  0:00:00   16
   985  4.1762e-05  5.2723e-04  4.8161e-04  4.5117e-04  5.3117e-04  8.3983e-05  0:00:15   15
   986  4.1442e-05  5.1069e-04  4.9534e-04  4.5115e-04  5.7156e-04  8.3832e-05  0:00:14   14
   987  3.9246e-05  5.2852e-04  4.8287e-04  4.7905e-04  5.6836e-04  8.7611e-05  0:00:13   13
   988  4.2545e-05  5.9351e-04  5.5783e-04  5.9526e-04  6.2011e-04  8.2962e-05  0:00:00   12
   989  4.2161e-05  4.8656e-04  5.3108e-04  5.5432e-04  5.3994e-04  8.3991e-05  0:00:11   11
   990  4.0690e-05  5.3963e-04  4.6558e-04  4.6963e-04  6.4327e-04  9.0032e-05  0:00:10   10

  iter  continuity  x-velocity  y-velocity  z-velocity           k       omega     time/iter
   991  4.1221e-05  5.4188e-04  4.2848e-04  4.6111e-04  5.1576e-04  8.6776e-05  0:00:00    9
   992  4.0999e-05  5.2561e-04  4.6453e-04  4.5729e-04  6.0278e-04  8.5376e-05  0:00:08    8
   993  4.4990e-05  5.4195e-04  4.6630e-04  4.7624e-04  5.4610e-04  8.6355e-05  0:00:07    7
   994  4.1249e-05  4.9310e-04  4.2516e-04  4.6045e-04  5.7851e-04  8.5570e-05  0:00:06    6
   995  3.8824e-05  4.8368e-04  4.3560e-04  4.4445e-04  5.8038e-04  8.9590e-05  0:00:00    5
   996  4.3670e-05  4.8139e-04  4.2303e-04  4.4562e-04  6.3622e-04  8.6113e-05  0:00:04    4
   997  3.9076e-05  4.8007e-04  4.1741e-04  4.5773e-04  5.5427e-04  8.6076e-05  0:00:03    3
   998  3.7950e-05  5.0986e-04  4.4306e-04  4.5333e-04  6.5679e-04  9.1005e-05  0:00:02    2
   999  3.9612e-05  4.6592e-04  4.5796e-04  4.3689e-04  5.3627e-04  8.6099e-05  0:00:00    1
  1000  3.8645e-05  4.6790e-04  3.9947e-04  4.3822e-04  6.2486e-04  8.4838e-05  0:00:00    0
Done

          ironcub-cd
 -------------------
                              Cd                    
-------------------------------- -------------------
                      ironcub-cd          0.20377024

          ironcub-cl
 -------------------
                              Cl                    
-------------------------------- -------------------
                      ironcub-cl           0.0822438

          ironcub-cs
 -------------------
                              Cd                    
-------------------------------- -------------------
                      ironcub-cs       -0.0037161981

             head-cd
 -------------------
                              Cd                    
-------------------------------- -------------------
                    ironcub_head        0.0092659002

             head-cl
 -------------------
                              Cl                    
-------------------------------- -------------------
                    ironcub_head        0.0096601992

             head-cs
 -------------------
                              Cl                    
-------------------------------- -------------------
                    ironcub_head       0.00050005185

            torso-cd
 -------------------
                              Cd                    
-------------------------------- -------------------
                        torso-cd         0.054784079

            torso-cl
 -------------------
                              Cl                    
-------------------------------- -------------------
                        torso-cl         0.016165125

            torso-cs
 -------------------
                              Cl                    
-------------------------------- -------------------
                        torso-cs       -0.0003548543

left-back-turbine-cd
 -------------------
                              Cd                    
-------------------------------- -------------------
       ironcub_left_back_turbine         0.014526801

left-back-turbine-cl
 -------------------
                              Cl                    
-------------------------------- -------------------
       ironcub_left_back_turbine        0.0078547752

left-back-turbine-cs
 -------------------
                              Cl                    
-------------------------------- -------------------
       ironcub_left_back_turbine         -0.00873748

right-back-turbine-cd
 -------------------
                              Cd                    
-------------------------------- -------------------
      ironcub_right_back_turbine         0.014384288

right-back-turbine-cl
 -------------------
                              Cl                    
-------------------------------- -------------------
      ironcub_right_back_turbine        0.0083468705

right-back-turbine-cs
 -------------------
                              Cl                    
-------------------------------- -------------------
      ironcub_right_back_turbine        0.0084790981

         left-arm-cd
 -------------------
                              Cd                    
-------------------------------- -------------------
                     left-arm-cd         0.010145638

         left-arm-cl
 -------------------
                              Cl                    
-------------------------------- -------------------
                     left-arm-cl        0.0032215658

         left-arm-cs
 -------------------
                              Cl                    
-------------------------------- -------------------
                     left-arm-cs       -0.0023396962

 left-arm-turbine-cd
 -------------------
                              Cd                    
-------------------------------- -------------------
            ironcub_left_turbine          0.01428512

 left-arm-turbine-cl
 -------------------
                              Cl                    
-------------------------------- -------------------
            ironcub_left_turbine        0.0026378913

 left-arm-turbine-cs
 -------------------
                              Cl                    
-------------------------------- -------------------
            ironcub_left_turbine       -0.0039341374

        right-arm-cd
 -------------------
                              Cd                    
-------------------------------- -------------------
                    right-arm-cd        0.0099960585

        right-arm-cl
 -------------------
                              Cl                    
-------------------------------- -------------------
                    right-arm-cl        0.0031108275

        right-arm-cs
 -------------------
                              Cl                    
-------------------------------- -------------------
                    right-arm-cs        0.0027007081

right-arm-turbine-cd
 -------------------
                              Cd                    
-------------------------------- -------------------
           ironcub_right_turbine         0.014493762

right-arm-turbine-cl
 -------------------
                              Cl                    
-------------------------------- -------------------
           ironcub_right_turbine         0.002795954

right-arm-turbine-cs
 -------------------
                              Cl                    
-------------------------------- -------------------
           ironcub_right_turbine        0.0030038919

        root-link-cd
 -------------------
                              Cd                    
-------------------------------- -------------------
                    root-link-cd         0.013806675

        root-link-cl
 -------------------
                              Cl                    
-------------------------------- -------------------
                    root-link-cl          0.01132207

        root-link-cs
 -------------------
                              Cl                    
-------------------------------- -------------------
                    root-link-cs       0.00083345002

   left-leg-upper-cd
 -------------------
                              Cd                    
-------------------------------- -------------------
               left-leg-upper-cd        0.0084589484

   left-leg-upper-cl
 -------------------
                              Cl                    
-------------------------------- -------------------
               left-leg-upper-cl        0.0053663231

   left-leg-upper-cs
 -------------------
                              Cl                    
-------------------------------- -------------------
               left-leg-upper-cs       -0.0037225788

   left-leg-lower-cd
 -------------------
                              Cd                    
-------------------------------- -------------------
          ironcub_left_leg_lower         0.015349955

   left-leg-lower-cl
 -------------------
                              Cl                    
-------------------------------- -------------------
          ironcub_left_leg_lower        0.0035349322

   left-leg-lower-cs
 -------------------
                              Cl                    
-------------------------------- -------------------
          ironcub_left_leg_lower        0.0019653416

  right-leg-upper-cd
 -------------------
                              Cd                    
-------------------------------- -------------------
              right-leg-upper-cd        0.0072434951

  right-leg-upper-cl
 -------------------
                              Cl                    
-------------------------------- -------------------
              right-leg-upper-cl        0.0052616317

  right-leg-upper-cs
 -------------------
                              Cl                    
-------------------------------- -------------------
              right-leg-upper-cs        0.0026203234

  right-leg-lower-cd
 -------------------
                              Cd                    
-------------------------------- -------------------
         ironcub_right_leg_lower         0.017029516

  right-leg-lower-cl
 -------------------
                              Cl                    
-------------------------------- -------------------
         ironcub_right_leg_lower         0.002965634

  right-leg-lower-cs
 -------------------
                              Cl                    
-------------------------------- -------------------
         ironcub_right_leg_lower       -0.0047303164
Writing "C:\Users\apaolino\code\element_cfd-simulation\simulations\ironcub-automatic-cfd\auto-cfd-sim-py\data\pressures\hovering-45-0-ironcub_right_leg_roll.txt"...
Writing information to ascii file ...
Done.

Writing "C:\Users\apaolino\code\element_cfd-simulation\simulations\ironcub-automatic-cfd\auto-cfd-sim-py\data\pressures\hovering-45-0-ironcub_left_leg_lower.txt"...
Writing information to ascii file ...
Done.

Writing "C:\Users\apaolino\code\element_cfd-simulation\simulations\ironcub-automatic-cfd\auto-cfd-sim-py\data\pressures\hovering-45-0-ironcub_left_leg_upper.txt"...
Writing information to ascii file ...
Done.

Writing "C:\Users\apaolino\code\element_cfd-simulation\simulations\ironcub-automatic-cfd\auto-cfd-sim-py\data\pressures\hovering-45-0-ironcub_left_leg_roll.txt"...
Writing information to ascii file ...
Done.

Writing "C:\Users\apaolino\code\element_cfd-simulation\simulations\ironcub-automatic-cfd\auto-cfd-sim-py\data\pressures\hovering-45-0-ironcub_left_leg_pitch.txt"...
Writing information to ascii file ...
Done.

Writing "C:\Users\apaolino\code\element_cfd-simulation\simulations\ironcub-automatic-cfd\auto-cfd-sim-py\data\pressures\hovering-45-0-ironcub_root_link.txt"...
Writing information to ascii file ...
Done.

Writing "C:\Users\apaolino\code\element_cfd-simulation\simulations\ironcub-automatic-cfd\auto-cfd-sim-py\data\pressures\hovering-45-0-ironcub_right_turbine.txt"...
Writing information to ascii file ...
Done.

Writing "C:\Users\apaolino\code\element_cfd-simulation\simulations\ironcub-automatic-cfd\auto-cfd-sim-py\data\pressures\hovering-45-0-ironcub_right_arm_roll.txt"...
Writing information to ascii file ...
Done.

Writing "C:\Users\apaolino\code\element_cfd-simulation\simulations\ironcub-automatic-cfd\auto-cfd-sim-py\data\pressures\hovering-45-0-ironcub_right_arm_pitch.txt"...
Writing information to ascii file ...
Done.

Writing "C:\Users\apaolino\code\element_cfd-simulation\simulations\ironcub-automatic-cfd\auto-cfd-sim-py\data\pressures\hovering-45-0-ironcub_right_arm.txt"...
Writing information to ascii file ...
Done.

Writing "C:\Users\apaolino\code\element_cfd-simulation\simulations\ironcub-automatic-cfd\auto-cfd-sim-py\data\pressures\hovering-45-0-ironcub_left_turbine.txt"...
Writing information to ascii file ...
Done.

Writing "C:\Users\apaolino\code\element_cfd-simulation\simulations\ironcub-automatic-cfd\auto-cfd-sim-py\data\pressures\hovering-45-0-ironcub_left_arm.txt"...
Writing information to ascii file ...
Done.

Writing "C:\Users\apaolino\code\element_cfd-simulation\simulations\ironcub-automatic-cfd\auto-cfd-sim-py\data\pressures\hovering-45-0-ironcub_left_arm_roll.txt"...
Writing information to ascii file ...
Done.

Writing "C:\Users\apaolino\code\element_cfd-simulation\simulations\ironcub-automatic-cfd\auto-cfd-sim-py\data\pressures\hovering-45-0-ironcub_torso_roll.txt"...
Writing information to ascii file ...
Done.

Writing "C:\Users\apaolino\code\element_cfd-simulation\simulations\ironcub-automatic-cfd\auto-cfd-sim-py\data\pressures\hovering-45-0-ironcub_torso.txt"...
Writing information to ascii file ...
Done.

Writing "C:\Users\apaolino\code\element_cfd-simulation\simulations\ironcub-automatic-cfd\auto-cfd-sim-py\data\pressures\hovering-45-0-ironcub_right_leg_lower.txt"...
Writing information to ascii file ...
Done.

Writing "C:\Users\apaolino\code\element_cfd-simulation\simulations\ironcub-automatic-cfd\auto-cfd-sim-py\data\pressures\hovering-45-0-ironcub_right_leg_upper.txt"...
Writing information to ascii file ...
Done.

Writing "C:\Users\apaolino\code\element_cfd-simulation\simulations\ironcub-automatic-cfd\auto-cfd-sim-py\data\pressures\hovering-45-0-ironcub_right_leg_pitch.txt"...
Writing information to ascii file ...
Done.

Writing "C:\Users\apaolino\code\element_cfd-simulation\simulations\ironcub-automatic-cfd\auto-cfd-sim-py\data\pressures\hovering-45-0-ironcub_left_arm_pitch.txt"...
Writing information to ascii file ...
Done.

Writing "C:\Users\apaolino\code\element_cfd-simulation\simulations\ironcub-automatic-cfd\auto-cfd-sim-py\data\pressures\hovering-45-0-ironcub_right_back_turbine.txt"...
Writing information to ascii file ...
Done.

Writing "C:\Users\apaolino\code\element_cfd-simulation\simulations\ironcub-automatic-cfd\auto-cfd-sim-py\data\pressures\hovering-45-0-ironcub_left_back_turbine.txt"...
Writing information to ascii file ...
Done.

Writing "C:\Users\apaolino\code\element_cfd-simulation\simulations\ironcub-automatic-cfd\auto-cfd-sim-py\data\pressures\hovering-45-0-ironcub_torso_pitch.txt"...
Writing information to ascii file ...
Done.

Writing "C:\Users\apaolino\code\element_cfd-simulation\simulations\ironcub-automatic-cfd\auto-cfd-sim-py\data\pressures\hovering-45-0-ironcub_head.txt"...
Writing information to ascii file ...
Done.

Shutting down Server...
Services Shutdown...Done.
Server Shutdown...Done.
Queue Cleared...Done.
Shutdown Complete.
Auto-Transcript Stop Time:  11:22:11, 19 Jan 2024 W. Europe Standard Time 
Total Transcript Time: 30 Minute 26 Second.
