Transcript Start Time:  17:06:01, 30 May 2023 W. Europe Daylight Time 
Current Directory: "E:\apaolino\automatic-cfd"

Build Time: Nov 28 2022 09:52:02 EST 
Executable Path: C:/PROGRA~1/ANSYSI~1/v231/fluent/ntbin/win64/fluent.exe

----------------------------------------------------------------------------------
ID    Hostname      Core   O.S.         PID    Vendor                            
----------------------------------------------------------------------------------
n47   IITICUBWS067  48/48  Windows-x64  15232  Intel(R) Xeon(R) Silver 4214R     
n46   IITICUBWS067  47/48  Windows-x64  2344   Intel(R) Xeon(R) Silver 4214R     
n45   IITICUBWS067  46/48  Windows-x64  19372  Intel(R) Xeon(R) Silver 4214R     
n44   IITICUBWS067  45/48  Windows-x64  19348  Intel(R) Xeon(R) Silver 4214R     
n43   IITICUBWS067  44/48  Windows-x64  13852  Intel(R) Xeon(R) Silver 4214R     
n42   IITICUBWS067  43/48  Windows-x64  15108  Intel(R) Xeon(R) Silver 4214R     
n41   IITICUBWS067  42/48  Windows-x64  14560  Intel(R) Xeon(R) Silver 4214R     
n40   IITICUBWS067  41/48  Windows-x64  13136  Intel(R) Xeon(R) Silver 4214R     
n39   IITICUBWS067  40/48  Windows-x64  10188  Intel(R) Xeon(R) Silver 4214R     
n38   IITICUBWS067  39/48  Windows-x64  17524  Intel(R) Xeon(R) Silver 4214R     
n37   IITICUBWS067  38/48  Windows-x64  18328  Intel(R) Xeon(R) Silver 4214R     
n36   IITICUBWS067  37/48  Windows-x64  9112   Intel(R) Xeon(R) Silver 4214R     
n35   IITICUBWS067  36/48  Windows-x64  18684  Intel(R) Xeon(R) Silver 4214R     
n34   IITICUBWS067  35/48  Windows-x64  16872  Intel(R) Xeon(R) Silver 4214R     
n33   IITICUBWS067  34/48  Windows-x64  15116  Intel(R) Xeon(R) Silver 4214R     
n32   IITICUBWS067  33/48  Windows-x64  4332   Intel(R) Xeon(R) Silver 4214R     
n31   IITICUBWS067  32/48  Windows-x64  10348  Intel(R) Xeon(R) Silver 4214R     
n30   IITICUBWS067  31/48  Windows-x64  5736   Intel(R) Xeon(R) Silver 4214R     
n29   IITICUBWS067  30/48  Windows-x64  11248  Intel(R) Xeon(R) Silver 4214R     
n28   IITICUBWS067  29/48  Windows-x64  18404  Intel(R) Xeon(R) Silver 4214R     
----------------------------------------------------------------------------------
ID    Hostname      Core   O.S.         PID    Vendor                            
----------------------------------------------------------------------------------
n27   IITICUBWS067  28/48  Windows-x64  12380  Intel(R) Xeon(R) Silver 4214R     
n26   IITICUBWS067  27/48  Windows-x64  12332  Intel(R) Xeon(R) Silver 4214R     
n25   IITICUBWS067  26/48  Windows-x64  16908  Intel(R) Xeon(R) Silver 4214R     
n24   IITICUBWS067  25/48  Windows-x64  12248  Intel(R) Xeon(R) Silver 4214R     
n23   IITICUBWS067  24/48  Windows-x64  13452  Intel(R) Xeon(R) Silver 4214R     
n22   IITICUBWS067  23/48  Windows-x64  11908  Intel(R) Xeon(R) Silver 4214R     
n21   IITICUBWS067  22/48  Windows-x64  19000  Intel(R) Xeon(R) Silver 4214R     
n20   IITICUBWS067  21/48  Windows-x64  18580  Intel(R) Xeon(R) Silver 4214R     
n19   IITICUBWS067  20/48  Windows-x64  16140  Intel(R) Xeon(R) Silver 4214R     
n18   IITICUBWS067  19/48  Windows-x64  18276  Intel(R) Xeon(R) Silver 4214R     
n17   IITICUBWS067  18/48  Windows-x64  15604  Intel(R) Xeon(R) Silver 4214R     
n16   IITICUBWS067  17/48  Windows-x64  1892   Intel(R) Xeon(R) Silver 4214R     
n15   IITICUBWS067  16/48  Windows-x64  15024  Intel(R) Xeon(R) Silver 4214R     
n14   IITICUBWS067  15/48  Windows-x64  15584  Intel(R) Xeon(R) Silver 4214R     
n13   IITICUBWS067  14/48  Windows-x64  14192  Intel(R) Xeon(R) Silver 4214R     
n12   IITICUBWS067  13/48  Windows-x64  10184  Intel(R) Xeon(R) Silver 4214R     
n11   IITICUBWS067  12/48  Windows-x64  18752  Intel(R) Xeon(R) Silver 4214R     
n10   IITICUBWS067  11/48  Windows-x64  10972  Intel(R) Xeon(R) Silver 4214R     
n9    IITICUBWS067  10/48  Windows-x64  16260  Intel(R) Xeon(R) Silver 4214R     
n8    IITICUBWS067  9/48   Windows-x64  10588  Intel(R) Xeon(R) Silver 4214R     
----------------------------------------------------------------------------------
ID    Hostname      Core   O.S.         PID    Vendor                            
----------------------------------------------------------------------------------
n7    IITICUBWS067  8/48   Windows-x64  8840   Intel(R) Xeon(R) Silver 4214R     
n6    IITICUBWS067  7/48   Windows-x64  15052  Intel(R) Xeon(R) Silver 4214R     
n5    IITICUBWS067  6/48   Windows-x64  15804  Intel(R) Xeon(R) Silver 4214R     
n4    IITICUBWS067  5/48   Windows-x64  10764  Intel(R) Xeon(R) Silver 4214R     
n3    IITICUBWS067  4/48   Windows-x64  18808  Intel(R) Xeon(R) Silver 4214R     
n2    IITICUBWS067  3/48   Windows-x64  17128  Intel(R) Xeon(R) Silver 4214R     
n1    IITICUBWS067  2/48   Windows-x64  11660  Intel(R) Xeon(R) Silver 4214R     
n0*   IITICUBWS067  1/48   Windows-x64  10856  Intel(R) Xeon(R) Silver 4214R     
host  IITICUBWS067         Windows-x64  10680  Intel(R) Xeon(R) Silver 4214R     

MPI Option Selected: intel
Selected system interconnect: default
----------------------------------------------------------------------------------

Cortex Process ID: 15688 
License Server Path: 1055@iitlicwge012.iit.local 
Fast-loading "C:\PROGRA~1\ANSYSI~1\v231\fluent\fluent23.1.0\\addons\afd\lib\hdfio.bin"
Done.
Reading setting file in cache: "E:\apaolino\automatic-cfd\automatic_cfd_project_files\dp0\FLTG\Fluent\FLTG.81.set"

Reading from IITICUBWS067:"E:\apaolino\automatic-cfd\automatic_cfd_project_files\dp0\FLTG\Fluent\FLTG.82-Setup-Output.cas.h5" in NODE0 mode ...
  Reading mesh ...
      315563 cells,     1 cell zone  ...
         315563 mixed cells,  zone id: 13898
     1510367 faces,    26 face zones ...
           1989 polygonal wall faces,  zone id: 147
           1573 polygonal wall faces,  zone id: 227
            744 polygonal wall faces,  zone id: 249
            752 polygonal wall faces,  zone id: 175
           1567 polygonal wall faces,  zone id: 229
           1614 polygonal wall faces,  zone id: 238
            253 polygonal wall faces,  zone id: 157
            255 polygonal wall faces,  zone id: 231
           3413 polygonal wall faces,  zone id: 228
           3377 polygonal wall faces,  zone id: 236
           2745 polygonal wall faces,  zone id: 156
           2765 polygonal wall faces,  zone id: 155
           2950 polygonal wall faces,  zone id: 250
           2964 polygonal wall faces,  zone id: 176
            145 polygonal wall faces,  zone id: 223
           8558 polygonal wall faces,  zone id: 214
            122 polygonal wall faces,  zone id: 226
            630 polygonal wall faces,  zone id: 173
            633 polygonal wall faces,  zone id: 242
            322 polygonal wall faces,  zone id: 152
            119 polygonal wall faces,  zone id: 233
            242 polygonal wall faces,  zone id: 253
            249 polygonal wall faces,  zone id: 247
            202 polygonal pressure-outlet faces,  zone id: 178
            203 polygonal velocity-inlet faces,  zone id: 177
        1471981 mixed interior faces,  zone id: 13900
      992582 nodes,     1 node zone  ...
  Done.



Building...
     mesh
	distributing mesh
		parts................................................,
		faces................................................,
		nodes................................................,
		cells................................................,
        bandwidth reduction using Reverse Cuthill-McKee: 8388/1030 = 8.14369
     materials,
     interface,
     domains,
	mixture
     zones,
	ironcub_head
	ironcub_left_arm
	ironcub_left_leg_upper
	ironcub_right_leg_upper
	ironcub_right_arm
	ironcub_root_link
	ironcub_left_arm_pitch
	ironcub_right_arm_pitch
	ironcub_left_turbine
	ironcub_right_turbine
	ironcub_right_back_turbine
	ironcub_left_back_turbine
	ironcub_left_leg_lower
	ironcub_right_leg_lower
	ironcub_torso_roll
	ironcub_torso
	ironcub_left_arm_roll
	ironcub_right_leg_pitch
	ironcub_left_leg_pitch
	ironcub_torso_pitch
	ironcub_right_arm_roll
	ironcub_right_leg_roll
	ironcub_left_leg_roll
	outlet
	inlet
	interior--fluid:0
	fluid:0Setting fluid:0 (mixture) ... Done.
 Setting zone id of fluid:0 to 13898.
 Setting zone id of interior--fluid:0 to 13900.
 Setting zone id of inlet to 177.
 Setting zone id of outlet to 178.
 Setting zone id of ironcub_left_leg_roll to 247.
 Setting zone id of ironcub_right_leg_roll to 253.
 Setting zone id of ironcub_right_arm_roll to 233.
 Setting zone id of ironcub_torso_pitch to 152.
 Setting zone id of ironcub_left_leg_pitch to 242.
 Setting zone id of ironcub_right_leg_pitch to 173.
 Setting zone id of ironcub_left_arm_roll to 226.
 Setting zone id of ironcub_torso to 214.
 Setting zone id of ironcub_torso_roll to 223.
 Setting zone id of ironcub_right_leg_lower to 176.
 Setting zone id of ironcub_left_leg_lower to 250.
 Setting zone id of ironcub_left_back_turbine to 155.
 Setting zone id of ironcub_right_back_turbine to 156.
 Setting zone id of ironcub_right_turbine to 236.
 Setting zone id of ironcub_left_turbine to 228.
 Setting zone id of ironcub_right_arm_pitch to 231.
 Setting zone id of ironcub_left_arm_pitch to 157.
 Setting zone id of ironcub_root_link to 238.
 Setting zone id of ironcub_right_arm to 229.
 Setting zone id of ironcub_right_leg_upper to 175.
 Setting zone id of ironcub_left_leg_upper to 249.
 Setting zone id of ironcub_left_arm to 227.
 Setting zone id of ironcub_head to 147.
Done.
Setting fluid:0 (mixture) ... Done.
Setting interior--fluid:0 (mixture) ... Done.
Setting inlet (mixture) ... Done.
Setting outlet (mixture) ... Done.
Setting ironcub_left_arm_roll (mixture) ... Done.
Setting ironcub_right_leg_roll (mixture) ... Done.
Setting ironcub_left_leg_pitch (mixture) ... Done.
Setting ironcub_left_leg_roll (mixture) ... Done.
Setting ironcub_right_arm_roll (mixture) ... Done.
Setting ironcub_torso (mixture) ... Done.
Setting ironcub_torso_pitch (mixture) ... Done.
Setting ironcub_right_leg_pitch (mixture) ... Done.
Setting ironcub_torso_roll (mixture) ... Done.
Setting ironcub_right_leg_lower (mixture) ... Done.
Setting ironcub_right_arm_pitch (mixture) ... Done.
Setting ironcub_right_back_turbine (mixture) ... Done.
Setting ironcub_left_leg_lower (mixture) ... Done.
Setting ironcub_left_back_turbine (mixture) ... Done.
Setting ironcub_root_link (mixture) ... Done.
Setting ironcub_left_leg_upper (mixture) ... Done.
Setting ironcub_left_arm_pitch (mixture) ... Done.
Setting ironcub_left_turbine (mixture) ... Done.
Setting ironcub_right_turbine (mixture) ... Done.
Setting ironcub_right_leg_upper (mixture) ... Done.
Setting ironcub_right_arm (mixture) ... Done.
Setting ironcub_left_arm (mixture) ... Done.
Setting ironcub_head (mixture) ... Done.

     parallel,
Done.

Preparing mesh for display...
Done.

Setting Post Processing and Surfaces information ...	 Done.
Reading E:\\apaolino\\automatic-cfd\\automatic_cfd_project_files\\dp0\\FLTG\\Fluent\\FLTG.79.ip...
Reading IP data ...
	x-coord
	y-coord
	z-coord
	pressure
	x-velocity
	y-velocity
	z-velocity
	k
	omega
  Done.
  Initializing values...
  Done.

  iter  continuity  x-velocity  y-velocity  z-velocity           k       omega     time/iter
     1  1.0000e+00  2.2899e-05  2.1734e-05  3.2103e-05  2.6967e-01  1.3255e+00  0:00:00  999
     2  6.7132e-01  1.7814e-05  1.7260e-05  2.8475e-05  1.3357e-01  2.3186e-01  0:16:38  998
     3  5.3258e-01  1.0975e-05  1.0800e-05  1.8268e-05  8.4003e-02  1.3901e-01  0:13:18  997
     4  3.9162e-01  6.9851e-06  6.9960e-06  1.1796e-05  6.5815e-02  6.3477e-02  0:13:57  996
     5  2.8904e-01  4.7365e-06  4.7998e-06  7.9886e-06  5.8015e-02  2.4525e-02  0:11:09  995
     6  2.0750e-01  3.4468e-06  3.4984e-06  5.7215e-06  5.5469e-02  1.1030e-02  0:08:54  994
     7  1.4886e-01  2.6466e-06  2.6917e-06  4.4713e-06  5.5136e-02  6.5736e-03  0:07:07  993
     8  1.1308e-01  2.1777e-06  2.2487e-06  3.7781e-06  5.4937e-02  4.4116e-03  0:09:00  992
     9  8.9346e-02  1.8608e-06  1.9344e-06  3.3215e-06  5.4480e-02  3.1011e-03  0:07:11  991
    10  7.3368e-02  1.6425e-06  1.6899e-06  3.0098e-06  5.3609e-02  2.2534e-03  0:05:45  990
    11  6.1410e-02  1.4862e-06  1.5034e-06  2.7805e-06  5.2362e-02  1.6947e-03  0:07:53  989

  iter  continuity  x-velocity  y-velocity  z-velocity           k       omega     time/iter
    12  5.2646e-02  1.3704e-06  1.3604e-06  2.5859e-06  5.1422e-02  1.3192e-03  0:06:18  988
    13  4.6497e-02  1.2752e-06  1.2496e-06  2.4112e-06  5.1404e-02  1.0595e-03  0:05:02  987
    14  4.1782e-02  1.1941e-06  1.1597e-06  2.2585e-06  5.1205e-02  8.7202e-04  0:07:19  986
    15  3.8067e-02  1.1185e-06  1.0878e-06  2.0993e-06  5.0200e-02  7.3587e-04  0:05:51  985
    16  3.5142e-02  1.0563e-06  1.0270e-06  1.9660e-06  4.8862e-02  6.3616e-04  0:04:40  984
    17  3.2733e-02  1.0014e-06  9.7697e-07  1.8588e-06  4.7250e-02  5.6001e-04  0:07:01  983
    18  3.0526e-02  9.4827e-07  9.3344e-07  1.7750e-06  4.6309e-02  5.0245e-04  0:05:36  982
    19  2.8615e-02  9.0318e-07  9.0082e-07  1.7101e-06  4.5424e-02  4.5659e-04  0:04:29  981
    20  2.7128e-02  8.7624e-07  8.8180e-07  1.6609e-06  4.4543e-02  4.1926e-04  0:06:51  980
    21  2.6063e-02  8.5810e-07  8.6884e-07  1.6261e-06  4.3718e-02  3.8814e-04  0:05:28  979
    22  2.5420e-02  8.4253e-07  8.5734e-07  1.5955e-06  4.2480e-02  3.6147e-04  0:04:22  978

  iter  continuity  x-velocity  y-velocity  z-velocity           k       omega     time/iter
    23  2.4949e-02  8.2797e-07  8.4586e-07  1.5663e-06  4.0957e-02  3.3865e-04  0:06:45  977
    24  2.4379e-02  8.1555e-07  8.3798e-07  1.5355e-06  3.9404e-02  3.1955e-04  0:05:24  976
    25  2.3898e-02  8.0007e-07  8.2355e-07  1.5042e-06  3.8008e-02  3.0296e-04  0:04:19  975
    26  2.3413e-02  7.7468e-07  8.0406e-07  1.4623e-06  3.6586e-02  2.8701e-04  0:06:42  974
    27  2.2815e-02  7.4498e-07  7.8204e-07  1.4164e-06  3.5295e-02  2.7183e-04  0:05:21  973
    28  2.2137e-02  7.1268e-07  7.5142e-07  1.3659e-06  3.3983e-02  2.5725e-04  0:04:16  972
    29  2.1483e-02  6.8143e-07  7.0796e-07  1.3182e-06  3.2494e-02  2.4284e-04  0:06:39  971
    30  2.0552e-02  6.4751e-07  6.6367e-07  1.2520e-06  3.1057e-02  2.2902e-04  0:05:19  970
    31  1.9789e-02  6.0982e-07  6.2296e-07  1.1887e-06  2.9768e-02  2.1664e-04  0:04:15  969
    32  1.9016e-02  5.7798e-07  5.8782e-07  1.1264e-06  2.8412e-02  2.0540e-04  0:06:37  968
    33  1.8297e-02  5.5622e-07  5.6130e-07  1.0721e-06  2.7051e-02  1.9482e-04  0:05:18  967

  iter  continuity  x-velocity  y-velocity  z-velocity           k       omega     time/iter
    34  1.7618e-02  5.4034e-07  5.4382e-07  1.0235e-06  2.5619e-02  1.8493e-04  0:07:27  966
    35  1.6925e-02  5.2258e-07  5.3022e-07  9.7817e-07  2.4072e-02  1.7592e-04  0:05:57  965
    36  1.6353e-02  5.0441e-07  5.1583e-07  9.3540e-07  2.2260e-02  1.6740e-04  0:07:58  964
    37  1.5680e-02  4.8324e-07  4.9670e-07  8.9505e-07  2.0345e-02  1.5911e-04  0:06:22  963
    38  1.5040e-02  4.6005e-07  4.7163e-07  8.5422e-07  1.8638e-02  1.5169e-04  0:05:05  962
    39  1.4397e-02  4.4128e-07  4.4813e-07  8.1098e-07  1.6971e-02  1.4459e-04  0:04:04  961
    40  1.3924e-02  4.1866e-07  4.2769e-07  7.6777e-07  1.5589e-02  1.3787e-04  0:06:27  960
    41  1.3215e-02  3.8792e-07  4.0495e-07  7.2021e-07  1.4236e-02  1.3154e-04  0:05:09  959
    42  1.2484e-02  3.6208e-07  3.7983e-07  6.7329e-07  1.3082e-02  1.2578e-04  0:04:07  958
    43  1.1790e-02  3.3989e-07  3.5636e-07  6.2913e-07  1.2057e-02  1.2081e-04  0:06:29  957
    44  1.1054e-02  3.2054e-07  3.3206e-07  5.9050e-07  1.1164e-02  1.1640e-04  0:05:11  956

  iter  continuity  x-velocity  y-velocity  z-velocity           k       omega     time/iter
    45  1.0381e-02  3.0175e-07  3.0730e-07  5.5054e-07  1.0436e-02  1.1251e-04  0:04:08  955
    46  9.8109e-03  2.8370e-07  2.8721e-07  5.1976e-07  9.8652e-03  1.0881e-04  0:06:29  954
    47  9.2745e-03  2.6679e-07  2.6985e-07  4.9105e-07  9.3747e-03  1.0529e-04  0:05:11  953
    48  8.7431e-03  2.5073e-07  2.5599e-07  4.6374e-07  8.9128e-03  1.0196e-04  0:04:09  952
    49  8.2804e-03  2.3741e-07  2.4477e-07  4.3891e-07  8.5059e-03  9.8651e-05  0:06:29  951
    50  7.8734e-03  2.2769e-07  2.3499e-07  4.1890e-07  8.1660e-03  9.5556e-05  0:05:11  950
    51  7.4923e-03  2.2069e-07  2.2730e-07  4.0357e-07  7.8933e-03  9.2589e-05  0:04:08  949
    52  7.1807e-03  2.1470e-07  2.2243e-07  3.9166e-07  7.6499e-03  8.9754e-05  0:06:28  948
    53  6.9624e-03  2.1018e-07  2.1951e-07  3.8315e-07  7.4164e-03  8.7155e-05  0:05:10  947
    54  6.8613e-03  2.0768e-07  2.1823e-07  3.7739e-07  7.2051e-03  8.4796e-05  0:04:08  946
    55  6.7996e-03  2.0487e-07  2.1700e-07  3.7421e-07  6.9966e-03  8.2426e-05  0:06:27  945

  iter  continuity  x-velocity  y-velocity  z-velocity           k       omega     time/iter
    56  6.7010e-03  2.0193e-07  2.1506e-07  3.7062e-07  6.7725e-03  7.9994e-05  0:05:09  944
    57  6.5819e-03  1.9835e-07  2.1080e-07  3.6545e-07  6.5281e-03  7.7357e-05  0:04:07  943
    58  6.4451e-03  1.9424e-07  2.0578e-07  3.5846e-07  6.2825e-03  7.4829e-05  0:06:26  942
    59  6.2904e-03  1.8930e-07  1.9989e-07  3.4973e-07  6.0247e-03  7.2448e-05  0:05:08  941
    60  6.1241e-03  1.8353e-07  1.9361e-07  3.3951e-07  5.7763e-03  7.0164e-05  0:04:06  940
    61  5.9199e-03  1.7746e-07  1.8702e-07  3.2861e-07  5.5336e-03  6.8069e-05  0:06:25  939
    62  5.6989e-03  1.7122e-07  1.8097e-07  3.1731e-07  5.2950e-03  6.6054e-05  0:05:07  938
    63  5.5040e-03  1.6558e-07  1.7514e-07  3.0615e-07  5.0710e-03  6.4115e-05  0:04:06  937
    64  5.3223e-03  1.5987e-07  1.6892e-07  2.9492e-07  4.8660e-03  6.2172e-05  0:06:24  936
    65  5.1396e-03  1.5385e-07  1.6227e-07  2.8396e-07  4.6803e-03  6.0326e-05  0:05:07  935
    66  4.9650e-03  1.4821e-07  1.5551e-07  2.7297e-07  4.5023e-03  5.8505e-05  0:04:05  934

  iter  continuity  x-velocity  y-velocity  z-velocity           k       omega     time/iter
    67  4.7916e-03  1.4250e-07  1.4928e-07  2.6238e-07  4.3351e-03  5.6643e-05  0:06:22  933
    68  4.6335e-03  1.3714e-07  1.4390e-07  2.5258e-07  4.1794e-03  5.4768e-05  0:05:06  932
    69  4.4909e-03  1.3246e-07  1.3874e-07  2.4288e-07  4.0284e-03  5.2960e-05  0:04:04  931
    70  4.3430e-03  1.2775e-07  1.3381e-07  2.3327e-07  3.8865e-03  5.1323e-05  0:06:21  930
    71  4.2046e-03  1.2339e-07  1.2936e-07  2.2439e-07  3.7537e-03  4.9865e-05  0:05:05  929
    72  4.0778e-03  1.1945e-07  1.2537e-07  2.1600e-07  3.6396e-03  4.8594e-05  0:04:03  928
    73  3.9566e-03  1.1547e-07  1.2148e-07  2.0794e-07  3.5396e-03  4.7434e-05  0:06:20  927
    74  3.8492e-03  1.1189e-07  1.1769e-07  2.0045e-07  3.4466e-03  4.6358e-05  0:05:04  926
    75  3.7404e-03  1.0877e-07  1.1409e-07  1.9358e-07  3.3598e-03  4.5312e-05  0:04:03  925
    76  3.6303e-03  1.0606e-07  1.1026e-07  1.8718e-07  3.2705e-03  4.4339e-05  0:06:19  924
    77  3.5229e-03  1.0365e-07  1.0649e-07  1.8119e-07  3.1899e-03  4.3289e-05  0:05:03  923

  iter  continuity  x-velocity  y-velocity  z-velocity           k       omega     time/iter
    78  3.4227e-03  1.0128e-07  1.0331e-07  1.7547e-07  3.1101e-03  4.2343e-05  0:04:02  922
    79  3.3216e-03  9.8734e-08  1.0025e-07  1.7007e-07  3.0283e-03  4.1504e-05  0:06:17  921
    80  3.2229e-03  9.6317e-08  9.7447e-08  1.6570e-07  2.9528e-03  4.0724e-05  0:05:02  920
    81  3.1243e-03  9.3892e-08  9.4703e-08  1.6142e-07  2.8840e-03  3.9950e-05  0:04:01  919
    82  3.0345e-03  9.1514e-08  9.2063e-08  1.5696e-07  2.8172e-03  3.9213e-05  0:06:16  918
    83  2.9479e-03  8.9276e-08  8.9738e-08  1.5277e-07  2.7631e-03  3.8545e-05  0:05:01  917
    84  2.8577e-03  8.7133e-08  8.7469e-08  1.4852e-07  2.7126e-03  3.7856e-05  0:04:00  916
    85  2.7715e-03  8.5084e-08  8.5466e-08  1.4459e-07  2.6682e-03  3.7265e-05  0:06:15  915
    86  2.6977e-03  8.3082e-08  8.3571e-08  1.4087e-07  2.6250e-03  3.6717e-05  0:05:00  914
    87  2.6332e-03  8.1192e-08  8.1900e-08  1.3745e-07  2.5897e-03  3.6160e-05  0:03:59  913
    88  2.5846e-03  7.9443e-08  8.0549e-08  1.3442e-07  2.5623e-03  3.5698e-05  0:06:14  912

  iter  continuity  x-velocity  y-velocity  z-velocity           k       omega     time/iter
    89  2.5428e-03  7.7959e-08  7.9347e-08  1.3155e-07  2.5410e-03  3.5211e-05  0:04:59  911
    90  2.5012e-03  7.6635e-08  7.8206e-08  1.2898e-07  2.5224e-03  3.4713e-05  0:03:59  910
    91  2.4704e-03  7.5462e-08  7.7230e-08  1.2667e-07  2.5080e-03  3.4377e-05  0:06:13  909
    92  2.4432e-03  7.4308e-08  7.6207e-08  1.2439e-07  2.4910e-03  3.3989e-05  0:04:58  908
    93  2.4186e-03  7.3073e-08  7.5118e-08  1.2222e-07  2.4733e-03  3.3580e-05  0:03:58  907
    94  2.3956e-03  7.1739e-08  7.4101e-08  1.2016e-07  2.4528e-03  3.3111e-05  0:06:11  906
    95  2.3728e-03  7.0346e-08  7.3203e-08  1.1819e-07  2.4282e-03  3.2606e-05  0:04:57  905
    96  2.3469e-03  6.8949e-08  7.2225e-08  1.1613e-07  2.4048e-03  3.2100e-05  0:03:57  904
    97  2.3231e-03  6.7703e-08  7.1285e-08  1.1428e-07  2.3835e-03  3.1619e-05  0:06:10  903
    98  2.2956e-03  6.6562e-08  7.0390e-08  1.1249e-07  2.3663e-03  3.1115e-05  0:04:56  902
    99  2.2628e-03  6.5398e-08  6.9466e-08  1.1078e-07  2.3470e-03  3.0753e-05  0:03:56  901

  iter  continuity  x-velocity  y-velocity  z-velocity           k       omega     time/iter
   100  2.2330e-03  6.4383e-08  6.8596e-08  1.0921e-07  2.3156e-03  3.0332e-05  0:06:09  900
   101  2.2039e-03  6.3454e-08  6.7797e-08  1.0793e-07  2.2805e-03  2.9871e-05  0:04:55  899
   102  2.1762e-03  6.2575e-08  6.7030e-08  1.0672e-07  2.2384e-03  2.9491e-05  0:03:56  898
   103  2.1467e-03  6.1673e-08  6.6317e-08  1.0562e-07  2.1935e-03  2.9027e-05  0:06:08  897
   104  2.1177e-03  6.0906e-08  6.5559e-08  1.0439e-07  2.1472e-03  2.8524e-05  0:04:54  896
   105  2.0925e-03  6.0205e-08  6.4804e-08  1.0310e-07  2.0990e-03  2.8038e-05  0:03:55  895
   106  2.0651e-03  5.9555e-08  6.4062e-08  1.0193e-07  2.0518e-03  2.7506e-05  0:06:06  894
   107  2.0332e-03  5.8918e-08  6.3229e-08  1.0077e-07  2.0093e-03  2.6976e-05  0:04:53  893
   108  2.0082e-03  5.8356e-08  6.2433e-08  9.9907e-08  1.9652e-03  2.6417e-05  0:03:54  892
   109  1.9796e-03  5.7697e-08  6.1594e-08  9.9175e-08  1.9186e-03  2.5843e-05  0:06:05  891
   110  1.9562e-03  5.7037e-08  6.0594e-08  9.8411e-08  1.8729e-03  2.5194e-05  0:04:52  890

  iter  continuity  x-velocity  y-velocity  z-velocity           k       omega     time/iter
   111  1.9356e-03  5.6407e-08  5.9535e-08  9.7383e-08  1.8270e-03  2.4537e-05  0:03:53  889
   112  1.9189e-03  5.5805e-08  5.8511e-08  9.5449e-08  1.7838e-03  2.4009e-05  0:06:04  888
   113  1.9031e-03  5.5073e-08  5.7472e-08  9.3917e-08  1.7383e-03  2.3539e-05  0:04:51  887
   114  1.8843e-03  5.4242e-08  5.6509e-08  9.2245e-08  1.6915e-03  2.3106e-05  0:03:52  886
   115  1.8718e-03  5.3505e-08  5.5576e-08  9.0620e-08  1.6469e-03  2.2688e-05  0:03:06  885
   116  1.8543e-03  5.2893e-08  5.4843e-08  8.9112e-08  1.6054e-03  2.2333e-05  0:05:25  884
   117  1.8311e-03  5.2379e-08  5.4210e-08  8.7735e-08  1.5693e-03  2.2035e-05  0:04:20  883
   118  1.8115e-03  5.1843e-08  5.3777e-08  8.6471e-08  1.5407e-03  2.1754e-05  0:03:28  882
   119  1.7949e-03  5.1422e-08  5.3425e-08  8.5325e-08  1.5233e-03  2.1459e-05  0:05:42  881
   120  1.7796e-03  5.1077e-08  5.3162e-08  8.4391e-08  1.5091e-03  2.1157e-05  0:04:33  880
   121  1.7662e-03  5.0888e-08  5.2967e-08  8.3587e-08  1.4993e-03  2.0825e-05  0:03:38  879

  iter  continuity  x-velocity  y-velocity  z-velocity           k       omega     time/iter
   122  1.7482e-03  5.0825e-08  5.2874e-08  8.3026e-08  1.4925e-03  2.0560e-05  0:05:50  878
   123  1.7323e-03  5.0837e-08  5.2902e-08  8.2615e-08  1.4892e-03  2.0229e-05  0:04:40  877
   124  1.7223e-03  5.0791e-08  5.2953e-08  8.2501e-08  1.4895e-03  1.9858e-05  0:06:39  876
   125  1.7209e-03  5.0720e-08  5.3046e-08  8.2451e-08  1.4877e-03  1.9582e-05  0:05:19  875
   126  1.7212e-03  5.0594e-08  5.3067e-08  8.2382e-08  1.4829e-03  1.9241e-05  0:04:15  874
   127  1.7135e-03  5.0300e-08  5.2965e-08  8.2228e-08  1.4777e-03  1.8919e-05  0:06:18  873
   128  1.7022e-03  4.9898e-08  5.2678e-08  8.1978e-08  1.4694e-03  1.8550e-05  0:05:02  872
   129  1.6919e-03  4.9413e-08  5.2174e-08  8.1557e-08  1.4565e-03  1.8180e-05  0:04:01  871
   130  1.6798e-03  4.8747e-08  5.1409e-08  8.0847e-08  1.4405e-03  1.7789e-05  0:06:07  870
   131  1.6624e-03  4.7918e-08  5.0422e-08  7.9840e-08  1.4206e-03  1.7481e-05  0:04:53  869
   132  1.6404e-03  4.6969e-08  4.9256e-08  7.8487e-08  1.3974e-03  1.7174e-05  0:03:54  868

  iter  continuity  x-velocity  y-velocity  z-velocity           k       omega     time/iter
   133  1.6112e-03  4.5928e-08  4.7896e-08  7.6874e-08  1.3731e-03  1.6854e-05  0:03:07  867
   134  1.5780e-03  4.4845e-08  4.6362e-08  7.5025e-08  1.3452e-03  1.6591e-05  0:05:23  866
   135  1.5431e-03  4.3707e-08  4.4760e-08  7.3043e-08  1.3164e-03  1.6370e-05  0:04:18  865
   136  1.5000e-03  4.2535e-08  4.3208e-08  7.1029e-08  1.2874e-03  1.6134e-05  0:06:19  864
   137  1.4534e-03  4.1338e-08  4.1721e-08  6.8951e-08  1.2598e-03  1.5983e-05  0:05:03  863
   138  1.4077e-03  4.0231e-08  4.0341e-08  6.6945e-08  1.2347e-03  1.5815e-05  0:04:02  862
   139  1.3654e-03  3.9251e-08  3.9170e-08  6.4977e-08  1.2117e-03  1.5586e-05  0:06:06  861
   140  1.3257e-03  3.8350e-08  3.8267e-08  6.3118e-08  1.1895e-03  1.5375e-05  0:04:52  860
   141  1.2868e-03  3.7637e-08  3.7675e-08  6.1630e-08  1.1686e-03  1.5204e-05  0:03:53  859
   142  1.2575e-03  3.7044e-08  3.7348e-08  6.0400e-08  1.1488e-03  1.4974e-05  0:05:58  858
   143  1.2338e-03  3.6560e-08  3.7147e-08  5.9340e-08  1.1295e-03  1.4791e-05  0:04:46  857

  iter  continuity  x-velocity  y-velocity  z-velocity           k       omega     time/iter
   144  1.2149e-03  3.6206e-08  3.7122e-08  5.8399e-08  1.1101e-03  1.4604e-05  0:03:49  856
   145  1.2008e-03  3.5949e-08  3.7089e-08  5.7527e-08  1.0898e-03  1.4384e-05  0:05:54  855
   146  1.1864e-03  3.5688e-08  3.6940e-08  5.6653e-08  1.0686e-03  1.4131e-05  0:04:43  854
   147  1.1743e-03  3.5320e-08  3.6690e-08  5.5782e-08  1.0475e-03  1.3853e-05  0:03:46  853
   148  1.1607e-03  3.4805e-08  3.6285e-08  5.4863e-08  1.0252e-03  1.3578e-05  0:05:51  852
   149  1.1452e-03  3.4299e-08  3.5751e-08  5.3884e-08  1.0019e-03  1.3337e-05  0:04:40  851
   150  1.1294e-03  3.3711e-08  3.5128e-08  5.2900e-08  9.7879e-04  1.3092e-05  0:03:44  850
   151  1.1095e-03  3.3075e-08  3.4462e-08  5.1886e-08  9.5827e-04  1.2845e-05  0:05:49  849
   152  1.0890e-03  3.2375e-08  3.3798e-08  5.0923e-08  9.4102e-04  1.2652e-05  0:04:39  848
   153  1.0659e-03  3.1666e-08  3.3094e-08  4.9942e-08  9.2362e-04  1.2434e-05  0:03:43  847
   154  1.0430e-03  3.0997e-08  3.2384e-08  4.9059e-08  9.0763e-04  1.2193e-05  0:05:47  846

  iter  continuity  x-velocity  y-velocity  z-velocity           k       omega     time/iter
   155  1.0238e-03  3.0389e-08  3.1726e-08  4.8133e-08  8.9316e-04  1.1936e-05  0:04:37  845
   156  1.0064e-03  2.9853e-08  3.1142e-08  4.7348e-08  8.7935e-04  1.1752e-05  0:03:42  844
   157  9.9460e-04  2.9431e-08  3.0684e-08  4.6641e-08  8.6601e-04  1.1563e-05  0:05:46  843
   158  9.8131e-04  2.9037e-08  3.0268e-08  4.5942e-08  8.5244e-04  1.1359e-05  0:04:36  842
   159  9.7286e-04  2.8676e-08  2.9887e-08  4.5364e-08  8.3870e-04  1.1186e-05  0:03:41  841
   160  9.6312e-04  2.8384e-08  2.9565e-08  4.4716e-08  8.2431e-04  1.0990e-05  0:05:44  840
   161  9.5403e-04  2.8066e-08  2.9209e-08  4.4243e-08  8.1026e-04  1.0856e-05  0:04:35  839
   162  9.4563e-04  2.7700e-08  2.8839e-08  4.3724e-08  7.9560e-04  1.0638e-05  0:03:40  838
   163  9.3525e-04  2.7268e-08  2.8424e-08  4.3201e-08  7.8051e-04  1.0423e-05  0:05:43  837
   164  9.2257e-04  2.6789e-08  2.7906e-08  4.2636e-08  7.6546e-04  1.0227e-05  0:04:34  836
   165  9.1011e-04  2.6278e-08  2.7326e-08  4.2051e-08  7.5018e-04  1.0049e-05  0:03:39  835

  iter  continuity  x-velocity  y-velocity  z-velocity           k       omega     time/iter
   166  8.9305e-04  2.5735e-08  2.6711e-08  4.1462e-08  7.3437e-04  9.9472e-06  0:05:42  834
   167  8.7621e-04  2.5205e-08  2.6080e-08  4.0864e-08  7.1875e-04  9.8409e-06  0:04:33  833
   168  8.5659e-04  2.4669e-08  2.5426e-08  4.0199e-08  7.0478e-04  9.7097e-06  0:03:38  832
   169  8.3632e-04  2.4145e-08  2.4766e-08  3.9607e-08  6.9167e-04  9.6247e-06  0:05:41  831
   170  8.1320e-04  2.3617e-08  2.4118e-08  3.9029e-08  6.7953e-04  9.5457e-06  0:04:32  830
   171  7.9051e-04  2.3158e-08  2.3499e-08  3.8485e-08  6.6889e-04  9.4878e-06  0:03:37  829
   172  7.7096e-04  2.2802e-08  2.2993e-08  3.7902e-08  6.5881e-04  9.4062e-06  0:05:39  828
   173  7.5456e-04  2.2504e-08  2.2589e-08  3.7446e-08  6.5024e-04  9.3065e-06  0:04:31  827
   174  7.4306e-04  2.2329e-08  2.2273e-08  3.7021e-08  6.4336e-04  9.2477e-06  0:06:22  826
   175  7.3381e-04  2.2176e-08  2.2086e-08  3.6599e-08  6.3676e-04  9.1850e-06  0:05:05  825
   176  7.2704e-04  2.2034e-08  2.2005e-08  3.6189e-08  6.2988e-04  9.0568e-06  0:04:04  824

  iter  continuity  x-velocity  y-velocity  z-velocity           k       omega     time/iter
   177  7.2109e-04  2.1909e-08  2.1953e-08  3.5860e-08  6.2250e-04  8.9027e-06  0:05:59  823
   178  7.1590e-04  2.1743e-08  2.1882e-08  3.5530e-08  6.1459e-04  8.7345e-06  0:04:47  822
   179  7.1306e-04  2.1559e-08  2.1770e-08  3.5204e-08  6.0693e-04  8.6260e-06  0:03:49  821
   180  7.0802e-04  2.1353e-08  2.1587e-08  3.4842e-08  5.9884e-04  8.4969e-06  0:05:47  820
   181  7.0234e-04  2.1072e-08  2.1333e-08  3.4476e-08  5.9047e-04  8.3726e-06  0:04:38  819
   182  6.9673e-04  2.0701e-08  2.0977e-08  3.4074e-08  5.8233e-04  8.2144e-06  0:03:42  818
   183  6.9048e-04  2.0252e-08  2.0521e-08  3.3606e-08  5.7477e-04  8.0818e-06  0:05:41  817
   184  6.8179e-04  1.9764e-08  2.0006e-08  3.3056e-08  5.6730e-04  7.9414e-06  0:04:32  816
   185  6.7083e-04  1.9251e-08  1.9439e-08  3.2374e-08  5.6052e-04  7.8024e-06  0:03:37  815
   186  6.5703e-04  1.8698e-08  1.8830e-08  3.1657e-08  5.5359e-04  7.6227e-06  0:05:37  814
   187  6.4274e-04  1.8114e-08  1.8211e-08  3.0889e-08  5.4710e-04  7.4433e-06  0:04:29  813

  iter  continuity  x-velocity  y-velocity  z-velocity           k       omega     time/iter
   188  6.2653e-04  1.7514e-08  1.7568e-08  3.0085e-08  5.4091e-04  7.2853e-06  0:03:35  812
   189  6.1150e-04  1.6965e-08  1.6958e-08  2.9396e-08  5.3476e-04  7.1748e-06  0:05:34  811
   190  5.9525e-04  1.6443e-08  1.6440e-08  2.8667e-08  5.2783e-04  7.0468e-06  0:04:27  810
   191  5.8081e-04  1.5947e-08  1.5942e-08  2.8031e-08  5.1995e-04  6.8894e-06  0:03:33  809
   192  5.6985e-04  1.5540e-08  1.5533e-08  2.7451e-08  5.1235e-04  6.8403e-06  0:05:32  808
   193  5.5969e-04  1.5243e-08  1.5282e-08  2.6960e-08  5.0459e-04  6.7746e-06  0:04:25  807
   194  5.4997e-04  1.5047e-08  1.5132e-08  2.6579e-08  4.9771e-04  6.6755e-06  0:03:32  806
   195  5.4261e-04  1.4986e-08  1.5086e-08  2.6423e-08  4.9275e-04  6.6324e-06  0:05:30  805
   196  5.3944e-04  1.5019e-08  1.5211e-08  2.6371e-08  4.8949e-04  6.6391e-06  0:04:24  804
   197  5.3702e-04  1.5125e-08  1.5399e-08  2.6407e-08  4.8824e-04  6.6033e-06  0:03:31  803
   198  5.3666e-04  1.5279e-08  1.5598e-08  2.6557e-08  4.8914e-04  6.5918e-06  0:05:29  802

  iter  continuity  x-velocity  y-velocity  z-velocity           k       omega     time/iter
   199  5.4038e-04  1.5472e-08  1.5856e-08  2.6795e-08  4.9238e-04  6.6106e-06  0:04:23  801
   200  5.4263e-04  1.5678e-08  1.6134e-08  2.7090e-08  4.9764e-04  6.6239e-06  0:03:30  800
   201  5.4728e-04  1.5935e-08  1.6441e-08  2.7510e-08  5.0432e-04  6.6212e-06  0:05:28  799
   202  5.5360e-04  1.6217e-08  1.6775e-08  2.7912e-08  5.1172e-04  6.6664e-06  0:04:22  798
   203  5.6075e-04  1.6535e-08  1.7112e-08  2.8369e-08  5.2026e-04  6.7435e-06  0:03:29  797
   204  5.6911e-04  1.6889e-08  1.7439e-08  2.8922e-08  5.2994e-04  6.7581e-06  0:05:26  796
   205  5.7772e-04  1.7256e-08  1.7796e-08  2.9500e-08  5.4094e-04  6.8107e-06  0:04:21  795
   206  5.8846e-04  1.7632e-08  1.8133e-08  3.0125e-08  5.5432e-04  6.9033e-06  0:03:28  794
   207  6.0014e-04  1.8040e-08  1.8469e-08  3.0793e-08  5.6875e-04  6.9491e-06  0:05:25  793
   208  6.1138e-04  1.8479e-08  1.8808e-08  3.1474e-08  5.8359e-04  6.9665e-06  0:04:20  792
   209  6.2302e-04  1.8903e-08  1.9111e-08  3.2208e-08  5.9889e-04  6.9899e-06  0:03:27  791

  iter  continuity  x-velocity  y-velocity  z-velocity           k       omega     time/iter
   210  6.3371e-04  1.9337e-08  1.9408e-08  3.2955e-08  6.1434e-04  7.0127e-06  0:05:24  790
   211  6.4492e-04  1.9759e-08  1.9704e-08  3.3664e-08  6.2917e-04  7.0424e-06  0:04:19  789
   212  6.5686e-04  2.0159e-08  1.9974e-08  3.4338e-08  6.4330e-04  7.0727e-06  0:03:27  788
   213  6.6955e-04  2.0569e-08  2.0187e-08  3.5006e-08  6.5762e-04  7.1155e-06  0:05:23  787
   214  6.7950e-04  2.0950e-08  2.0375e-08  3.5600e-08  6.7062e-04  7.1450e-06  0:04:18  786
   215  6.8932e-04  2.1299e-08  2.0548e-08  3.6117e-08  6.8293e-04  7.1285e-06  0:03:26  785
   216  7.0090e-04  2.1615e-08  2.0698e-08  3.6576e-08  6.9402e-04  7.1357e-06  0:05:21  784
   217  7.1218e-04  2.1936e-08  2.0845e-08  3.6987e-08  7.0405e-04  7.1145e-06  0:04:17  783
   218  7.2013e-04  2.2203e-08  2.0952e-08  3.7316e-08  7.1255e-04  7.0755e-06  0:03:25  782
   219  7.2694e-04  2.2395e-08  2.1035e-08  3.7612e-08  7.1950e-04  7.0446e-06  0:05:20  781
   220  7.3340e-04  2.2613e-08  2.1123e-08  3.7753e-08  7.2578e-04  7.0208e-06  0:04:16  780

  iter  continuity  x-velocity  y-velocity  z-velocity           k       omega     time/iter
   221  7.4281e-04  2.2853e-08  2.1219e-08  3.7904e-08  7.2939e-04  7.0042e-06  0:03:24  779
   222  7.5290e-04  2.3067e-08  2.1305e-08  3.7940e-08  7.3193e-04  6.9409e-06  0:05:19  778
   223  7.6288e-04  2.3278e-08  2.1411e-08  3.8003e-08  7.3349e-04  6.9529e-06  0:04:15  777
   224  7.7197e-04  2.3462e-08  2.1507e-08  3.8085e-08  7.3333e-04  6.9393e-06  0:03:24  776
   225  7.8064e-04  2.3636e-08  2.1614e-08  3.8171e-08  7.3336e-04  6.9511e-06  0:05:18  775
   226  7.8756e-04  2.3772e-08  2.1712e-08  3.8204e-08  7.3247e-04  6.9698e-06  0:04:14  774
   227  7.9414e-04  2.3890e-08  2.1804e-08  3.8174e-08  7.3060e-04  6.9744e-06  0:03:23  773
   228  7.9854e-04  2.3971e-08  2.1923e-08  3.8160e-08  7.2819e-04  7.0381e-06  0:05:16  772
   229  8.0136e-04  2.4040e-08  2.2031e-08  3.8135e-08  7.2542e-04  7.0458e-06  0:04:13  771
   230  8.0198e-04  2.4093e-08  2.2065e-08  3.8060e-08  7.2538e-04  7.0177e-06  0:03:22  770
   231  8.0237e-04  2.4171e-08  2.2128e-08  3.8151e-08  7.2521e-04  7.0841e-06  0:05:15  769

  iter  continuity  x-velocity  y-velocity  z-velocity           k       omega     time/iter
   232  8.0296e-04  2.4250e-08  2.2313e-08  3.8258e-08  7.2583e-04  7.1159e-06  0:04:12  768
   233  8.0542e-04  2.4371e-08  2.2544e-08  3.8493e-08  7.2625e-04  7.1473e-06  0:03:21  767
   234  8.0968e-04  2.4513e-08  2.2807e-08  3.9020e-08  7.2791e-04  7.2185e-06  0:05:14  766
   235  8.1480e-04  2.4741e-08  2.3114e-08  3.9344e-08  7.3061e-04  7.2599e-06  0:04:11  765
   236  8.2302e-04  2.4998e-08  2.3467e-08  3.9740e-08  7.3433e-04  7.3262e-06  0:03:20  764
   237  8.3513e-04  2.5314e-08  2.3875e-08  4.0232e-08  7.3967e-04  7.4169e-06  0:05:13  763
   238  8.4619e-04  2.5660e-08  2.4298e-08  4.0757e-08  7.4688e-04  7.4884e-06  0:04:10  762
   239  8.6100e-04  2.6042e-08  2.4708e-08  4.1309e-08  7.5604e-04  7.5687e-06  0:03:20  761
   240  8.7206e-04  2.6452e-08  2.5116e-08  4.1950e-08  7.6883e-04  7.6478e-06  0:02:39  760
   241  8.8258e-04  2.6874e-08  2.5593e-08  4.2620e-08  7.8099e-04  7.7079e-06  0:04:39  759
   242  8.9123e-04  2.7261e-08  2.6050e-08  4.3253e-08  7.9303e-04  7.7181e-06  0:03:43  758

  iter  continuity  x-velocity  y-velocity  z-velocity           k       omega     time/iter
   243  9.0336e-04  2.7632e-08  2.6469e-08  4.3920e-08  8.0640e-04  7.8118e-06  0:02:58  757
   244  9.1550e-04  2.7974e-08  2.6863e-08  4.4547e-08  8.2079e-04  7.8519e-06  0:04:54  756
   245  9.2566e-04  2.8247e-08  2.7226e-08  4.5100e-08  8.3456e-04  7.9076e-06  0:03:55  755
   246  9.3577e-04  2.8485e-08  2.7526e-08  4.5592e-08  8.4685e-04  7.9881e-06  0:05:38  754
   247  9.4843e-04  2.8741e-08  2.7780e-08  4.6052e-08  8.5760e-04  8.0629e-06  0:04:30  753
   248  9.6105e-04  2.9002e-08  2.7968e-08  4.6309e-08  8.6601e-04  8.1317e-06  0:03:36  752
   249  9.7135e-04  2.9201e-08  2.8070e-08  4.6475e-08  8.7423e-04  8.1672e-06  0:05:23  751
   250  9.7836e-04  2.9317e-08  2.8084e-08  4.6579e-08  8.8153e-04  8.1796e-06  0:04:18  750
   251  9.8221e-04  2.9430e-08  2.8019e-08  4.6565e-08  8.8735e-04  8.2004e-06  0:03:26  749
   252  9.8638e-04  2.9470e-08  2.7895e-08  4.6446e-08  8.9184e-04  8.2101e-06  0:05:14  748
   253  9.8698e-04  2.9340e-08  2.7715e-08  4.6216e-08  8.9473e-04  8.2368e-06  0:04:11  747

  iter  continuity  x-velocity  y-velocity  z-velocity           k       omega     time/iter
   254  9.8953e-04  2.9229e-08  2.7410e-08  4.5941e-08  8.9539e-04  8.2445e-06  0:03:21  746
   255  9.9248e-04  2.8964e-08  2.7058e-08  4.5575e-08  8.9457e-04  8.2665e-06  0:05:09  745
   256  9.9226e-04  2.8676e-08  2.6711e-08  4.5252e-08  8.9266e-04  8.3280e-06  0:04:07  744
   257  9.8917e-04  2.8371e-08  2.6402e-08  4.4969e-08  8.9027e-04  8.3472e-06  0:03:17  743
   258  9.8173e-04  2.8148e-08  2.6208e-08  4.4682e-08  8.8816e-04  8.3656e-06  0:05:06  742
   259  9.7925e-04  2.8103e-08  2.6215e-08  4.4627e-08  8.8615e-04  8.4106e-06  0:04:05  741
   260  9.7590e-04  2.8255e-08  2.6336e-08  4.4805e-08  8.8492e-04  8.4325e-06  0:03:15  740
   261  9.7425e-04  2.8598e-08  2.6738e-08  4.5334e-08  8.8446e-04  8.4442e-06  0:05:04  739
   262  9.8236e-04  2.9116e-08  2.7441e-08  4.6222e-08  8.8472e-04  8.4748e-06  0:04:03  738
   263  9.9017e-04  2.9729e-08  2.8245e-08  4.7311e-08  8.8663e-04  8.5142e-06  0:03:14  737
   264  1.0023e-03  3.0429e-08  2.9155e-08  4.8538e-08  8.9000e-04  8.6103e-06  0:05:02  736

  iter  continuity  x-velocity  y-velocity  z-velocity           k       omega     time/iter
   265  1.0154e-03  3.1158e-08  3.0150e-08  4.9819e-08  8.9508e-04  8.6400e-06  0:04:01  735
   266  1.0302e-03  3.1862e-08  3.1119e-08  5.1115e-08  9.0139e-04  8.7406e-06  0:03:13  734
   267  1.0469e-03  3.2454e-08  3.1939e-08  5.2360e-08  9.0840e-04  8.8362e-06  0:05:01  733
   268  1.0584e-03  3.3006e-08  3.2654e-08  5.3385e-08  9.1220e-04  8.8265e-06  0:04:00  732
   269  1.0701e-03  3.3424e-08  3.3160e-08  5.4215e-08  9.1444e-04  8.8176e-06  0:03:12  731
   270  1.0825e-03  3.3685e-08  3.3480e-08  5.4837e-08  9.1379e-04  8.8277e-06  0:02:33  730
   271  1.0892e-03  3.3698e-08  3.3555e-08  5.5110e-08  9.1048e-04  8.7576e-06  0:04:28  729
   272  1.0925e-03  3.3569e-08  3.3408e-08  5.5128e-08  9.0503e-04  8.7585e-06  0:03:34  728
   273  1.0885e-03  3.3193e-08  3.3020e-08  5.4727e-08  8.9833e-04  8.6490e-06  0:02:51  727
   274  1.0815e-03  3.2563e-08  3.2398e-08  5.3631e-08  8.8951e-04  8.5743e-06  0:04:42  726
   275  1.0729e-03  3.1808e-08  3.1611e-08  5.2402e-08  8.7933e-04  8.5075e-06  0:03:45  725

  iter  continuity  x-velocity  y-velocity  z-velocity           k       omega     time/iter
   276  1.0586e-03  3.0925e-08  3.0639e-08  5.1347e-08  8.6796e-04  8.4018e-06  0:05:25  724
   277  1.0376e-03  2.9973e-08  2.9582e-08  5.0053e-08  8.5617e-04  8.2758e-06  0:04:19  723
   278  1.0161e-03  2.8957e-08  2.8397e-08  4.8771e-08  8.4394e-04  8.1783e-06  0:03:27  722
   279  9.8809e-04  2.7926e-08  2.7220e-08  4.7354e-08  8.3136e-04  8.0484e-06  0:05:10  721
   280  9.5821e-04  2.6917e-08  2.6026e-08  4.6002e-08  8.1865e-04  7.9177e-06  0:04:07  720
   281  9.3027e-04  2.5990e-08  2.4882e-08  4.4727e-08  8.0708e-04  7.8296e-06  0:03:18  719
   282  9.0376e-04  2.5119e-08  2.3868e-08  4.3539e-08  7.9668e-04  7.7631e-06  0:05:02  718
   283  8.7840e-04  2.4344e-08  2.3013e-08  4.2440e-08  7.8500e-04  7.6439e-06  0:04:01  717
   284  8.5607e-04  2.3621e-08  2.2311e-08  4.1470e-08  7.7484e-04  7.5630e-06  0:03:12  716
   285  8.3738e-04  2.3006e-08  2.1772e-08  4.0610e-08  7.6586e-04  7.5009e-06  0:04:57  715
   286  8.1891e-04  2.2494e-08  2.1362e-08  3.9901e-08  7.5846e-04  7.4249e-06  0:03:57  714

  iter  continuity  x-velocity  y-velocity  z-velocity           k       omega     time/iter
   287  8.0470e-04  2.2022e-08  2.1016e-08  3.9325e-08  7.5196e-04  7.3764e-06  0:03:09  713
   288  7.9198e-04  2.1655e-08  2.0760e-08  3.8915e-08  7.4802e-04  7.3089e-06  0:04:54  712
   289  7.8325e-04  2.1399e-08  2.0590e-08  3.8661e-08  7.4568e-04  7.2625e-06  0:03:55  711
   290  7.7603e-04  2.1264e-08  2.0481e-08  3.8598e-08  7.4580e-04  7.2826e-06  0:03:07  710
   291  7.7184e-04  2.1226e-08  2.0423e-08  3.8575e-08  7.4795e-04  7.2582e-06  0:04:52  709
   292  7.6682e-04  2.1226e-08  2.0459e-08  3.8720e-08  7.5091e-04  7.2632e-06  0:03:53  708
   293  7.6430e-04  2.1353e-08  2.0608e-08  3.8903e-08  7.5514e-04  7.2675e-06  0:03:06  707
   294  7.6718e-04  2.1542e-08  2.0848e-08  3.9376e-08  7.6088e-04  7.2941e-06  0:04:50  706
   295  7.7110e-04  2.1818e-08  2.1195e-08  3.9695e-08  7.6806e-04  7.3413e-06  0:03:52  705
   296  7.7767e-04  2.2161e-08  2.1595e-08  4.0120e-08  7.7421e-04  7.3951e-06  0:03:05  704
   297  7.8529e-04  2.2554e-08  2.2061e-08  4.0538e-08  7.8170e-04  7.4532e-06  0:04:48  703

  iter  continuity  x-velocity  y-velocity  z-velocity           k       omega     time/iter
   298  7.9414e-04  2.2958e-08  2.2551e-08  4.0974e-08  7.8903e-04  7.5060e-06  0:03:50  702
   299  8.0722e-04  2.3362e-08  2.3000e-08  4.1535e-08  7.9484e-04  7.5508e-06  0:03:04  701
   300  8.1894e-04  2.3775e-08  2.3360e-08  4.2005e-08  8.0001e-04  7.5873e-06  0:04:47  700
   301  8.3393e-04  2.4110e-08  2.3631e-08  4.2420e-08  8.0393e-04  7.6239e-06  0:03:49  699
   302  8.4513e-04  2.4294e-08  2.3814e-08  4.2723e-08  8.0595e-04  7.6545e-06  0:03:03  698
   303  8.5196e-04  2.4422e-08  2.3945e-08  4.2972e-08  8.0643e-04  7.6639e-06  0:04:46  697
   304  8.5759e-04  2.4556e-08  2.4034e-08  4.3184e-08  8.0551e-04  7.7268e-06  0:03:48  696
   305  8.5865e-04  2.4640e-08  2.4040e-08  4.3232e-08  8.0452e-04  7.7779e-06  0:03:02  695
   306  8.6330e-04  2.4672e-08  2.3994e-08  4.3273e-08  8.0438e-04  7.8746e-06  0:04:44  694
   307  8.6674e-04  2.4726e-08  2.3956e-08  4.3280e-08  8.0530e-04  7.9334e-06  0:03:47  693
   308  8.6727e-04  2.4736e-08  2.3878e-08  4.3330e-08  8.0642e-04  8.0178e-06  0:03:02  692

  iter  continuity  x-velocity  y-velocity  z-velocity           k       omega     time/iter
   309  8.6918e-04  2.4760e-08  2.3797e-08  4.3348e-08  8.0644e-04  8.1035e-06  0:04:43  691
   310  8.7222e-04  2.4768e-08  2.3845e-08  4.3414e-08  8.0759e-04  8.1770e-06  0:03:46  690
   311  8.7189e-04  2.4739e-08  2.3741e-08  4.3463e-08  8.1005e-04  8.2755e-06  0:05:19  689
   312  8.7381e-04  2.4742e-08  2.3612e-08  4.3578e-08  8.1109e-04  8.3708e-06  0:04:14  688
   313  8.7172e-04  2.4700e-08  2.3522e-08  4.3677e-08  8.1367e-04  8.4753e-06  0:05:41  687
   314  8.7336e-04  2.4663e-08  2.3510e-08  4.3847e-08  8.1872e-04  8.5101e-06  0:04:32  686
   315  8.7648e-04  2.4670e-08  2.3532e-08  4.4036e-08  8.2525e-04  8.5491e-06  0:03:37  685
   316  8.7991e-04  2.4684e-08  2.3598e-08  4.4237e-08  8.3264e-04  8.6678e-06  0:05:10  684
   317  8.8383e-04  2.4731e-08  2.3699e-08  4.4493e-08  8.4012e-04  8.7113e-06  0:04:08  683
   318  8.8725e-04  2.4793e-08  2.3796e-08  4.4784e-08  8.4846e-04  8.7764e-06  0:03:18  682
   319  8.9086e-04  2.4862e-08  2.3955e-08  4.5078e-08  8.5585e-04  8.8431e-06  0:02:38  681

  iter  continuity  x-velocity  y-velocity  z-velocity           k       omega     time/iter
   320  8.9936e-04  2.4972e-08  2.4106e-08  4.5421e-08  8.6239e-04  8.8693e-06  0:04:22  680
   321  9.0440e-04  2.5038e-08  2.4113e-08  4.5648e-08  8.6870e-04  8.8890e-06  0:03:30  679
   322  9.0640e-04  2.5038e-08  2.4116e-08  4.5821e-08  8.7470e-04  8.9492e-06  0:02:47  678
   323  9.0959e-04  2.5041e-08  2.4135e-08  4.5968e-08  8.8028e-04  8.9763e-06  0:04:29  677
   324  9.1185e-04  2.5009e-08  2.4152e-08  4.6041e-08  8.8416e-04  8.9091e-06  0:03:35  676
   325  9.1168e-04  2.4954e-08  2.4156e-08  4.6126e-08  8.8774e-04  8.8770e-06  0:02:52  675
   326  9.0977e-04  2.4859e-08  2.4113e-08  4.6112e-08  8.9012e-04  8.8791e-06  0:04:32  674
   327  9.0727e-04  2.4752e-08  2.4043e-08  4.5970e-08  8.8987e-04  8.8318e-06  0:03:37  673
   328  9.0141e-04  2.4598e-08  2.3897e-08  4.5770e-08  8.8829e-04  8.8315e-06  0:02:54  672
   329  8.9363e-04  2.4416e-08  2.3660e-08  4.5418e-08  8.8487e-04  8.7685e-06  0:04:33  671
   330  8.8408e-04  2.4231e-08  2.3359e-08  4.5013e-08  8.7999e-04  8.6660e-06  0:03:38  670

  iter  continuity  x-velocity  y-velocity  z-velocity           k       omega     time/iter
   331  8.7391e-04  2.3983e-08  2.3041e-08  4.4567e-08  8.7281e-04  8.5868e-06  0:02:54  669
   332  8.6119e-04  2.3703e-08  2.2692e-08  4.3999e-08  8.6383e-04  8.5134e-06  0:04:33  668
   333  8.5068e-04  2.3415e-08  2.2305e-08  4.3493e-08  8.5329e-04  8.4749e-06  0:03:38  667
   334  8.4129e-04  2.3105e-08  2.1928e-08  4.2864e-08  8.4123e-04  8.3821e-06  0:02:54  666
   335  8.2834e-04  2.2772e-08  2.1522e-08  4.2211e-08  8.2721e-04  8.2514e-06  0:04:32  665
   336  8.1650e-04  2.2419e-08  2.1114e-08  4.1562e-08  8.1243e-04  8.1129e-06  0:03:37  664
   337  8.0422e-04  2.2026e-08  2.0759e-08  4.0808e-08  7.9830e-04  7.9689e-06  0:05:06  663
   338  7.9226e-04  2.1642e-08  2.0396e-08  4.0206e-08  7.8523e-04  7.9044e-06  0:04:05  662
   339  7.7670e-04  2.1264e-08  2.0000e-08  3.9610e-08  7.7112e-04  7.7982e-06  0:03:15  661
   340  7.6318e-04  2.0899e-08  1.9678e-08  3.9078e-08  7.5693e-04  7.6452e-06  0:02:36  660
   341  7.5102e-04  2.0578e-08  1.9426e-08  3.8638e-08  7.4398e-04  7.5278e-06  0:04:16  659

  iter  continuity  x-velocity  y-velocity  z-velocity           k       omega     time/iter
   342  7.3860e-04  2.0319e-08  1.9248e-08  3.8148e-08  7.3173e-04  7.4307e-06  0:03:25  658
   343  7.2842e-04  2.0130e-08  1.9127e-08  3.7748e-08  7.1905e-04  7.3497e-06  0:02:44  657
   344  7.2232e-04  2.0048e-08  1.9058e-08  3.7421e-08  7.0624e-04  7.2648e-06  0:04:22  656
   345  7.1818e-04  2.0019e-08  1.9049e-08  3.7133e-08  6.9423e-04  7.1501e-06  0:03:29  655
   346  7.1506e-04  2.0058e-08  1.9106e-08  3.6916e-08  6.8266e-04  7.0077e-06  0:02:47  654
   347  7.0995e-04  2.0098e-08  1.9183e-08  3.6616e-08  6.6912e-04  6.8579e-06  0:04:24  653
   348  7.0633e-04  2.0158e-08  1.9267e-08  3.6317e-08  6.5950e-04  6.7501e-06  0:03:31  652
   349  7.0500e-04  2.0203e-08  1.9349e-08  3.6039e-08  6.4695e-04  6.6598e-06  0:02:48  651
   350  7.0296e-04  2.0211e-08  1.9435e-08  3.5634e-08  6.3401e-04  6.5278e-06  0:04:25  650
   351  7.0404e-04  2.0188e-08  1.9537e-08  3.5168e-08  6.2053e-04  6.3676e-06  0:03:31  649
   352  7.0415e-04  2.0128e-08  1.9550e-08  3.4619e-08  6.0635e-04  6.2142e-06  0:02:49  648

  iter  continuity  x-velocity  y-velocity  z-velocity           k       omega     time/iter
   353  7.0090e-04  2.0006e-08  1.9457e-08  3.4012e-08  5.9121e-04  6.0924e-06  0:04:24  647
   354  6.9523e-04  1.9843e-08  1.9306e-08  3.3381e-08  5.7528e-04  5.9556e-06  0:03:31  646
   355  6.8866e-04  1.9616e-08  1.9109e-08  3.2671e-08  5.5922e-04  5.8595e-06  0:02:49  645
   356  6.8114e-04  1.9298e-08  1.8804e-08  3.1938e-08  5.4291e-04  5.7156e-06  0:04:23  644
   357  6.7079e-04  1.8956e-08  1.8426e-08  3.1112e-08  5.2700e-04  5.5270e-06  0:03:30  643
   358  6.5796e-04  1.8535e-08  1.8021e-08  3.0171e-08  5.1202e-04  5.3835e-06  0:02:48  642
   359  6.4344e-04  1.8087e-08  1.7559e-08  2.9213e-08  4.9829e-04  5.2851e-06  0:04:22  641
   360  6.2675e-04  1.7610e-08  1.7056e-08  2.8338e-08  4.8624e-04  5.2048e-06  0:03:30  640
   361  6.1017e-04  1.7103e-08  1.6527e-08  2.7496e-08  4.7691e-04  5.1086e-06  0:02:47  639
   362  5.9378e-04  1.6569e-08  1.5969e-08  2.6783e-08  4.7024e-04  4.9548e-06  0:04:21  638
   363  5.7564e-04  1.6029e-08  1.5413e-08  2.6078e-08  4.6578e-04  4.8377e-06  0:03:29  637

  iter  continuity  x-velocity  y-velocity  z-velocity           k       omega     time/iter
   364  5.5516e-04  1.5467e-08  1.4840e-08  2.5507e-08  4.6342e-04  4.7471e-06  0:02:47  636
   365  5.3730e-04  1.4956e-08  1.4306e-08  2.4972e-08  4.6449e-04  4.7027e-06  0:04:20  635
   366  5.2121e-04  1.4469e-08  1.3789e-08  2.4520e-08  4.6653e-04  4.6121e-06  0:03:28  634
   367  5.0599e-04  1.4031e-08  1.3349e-08  2.4154e-08  4.6990e-04  4.5022e-06  0:02:46  633
   368  4.9087e-04  1.3663e-08  1.2961e-08  2.3892e-08  4.7514e-04  4.4372e-06  0:04:19  632
   369  4.7804e-04  1.3393e-08  1.2684e-08  2.3751e-08  4.8084e-04  4.3902e-06  0:03:27  631
   370  4.6744e-04  1.3220e-08  1.2510e-08  2.3685e-08  4.8629e-04  4.3530e-06  0:02:45  630
   371  4.6002e-04  1.3118e-08  1.2403e-08  2.3757e-08  4.9131e-04  4.3840e-06  0:04:18  629
   372  4.5580e-04  1.3130e-08  1.2418e-08  2.3888e-08  4.9559e-04  4.3512e-06  0:03:26  628
   373  4.5627e-04  1.3258e-08  1.2548e-08  2.4110e-08  4.9960e-04  4.2976e-06  0:02:44  627
   374  4.6004e-04  1.3450e-08  1.2770e-08  2.4395e-08  5.0271e-04  4.3172e-06  0:04:17  626

  iter  continuity  x-velocity  y-velocity  z-velocity           k       omega     time/iter
   375  4.6588e-04  1.3728e-08  1.3056e-08  2.4733e-08  5.0509e-04  4.2876e-06  0:03:25  625
   376  4.7478e-04  1.3993e-08  1.3388e-08  2.4985e-08  5.0680e-04  4.2700e-06  0:02:44  624
   377  4.8394e-04  1.4262e-08  1.3718e-08  2.5278e-08  5.0752e-04  4.2808e-06  0:04:15  623
   378  4.9285e-04  1.4534e-08  1.4037e-08  2.5516e-08  5.0707e-04  4.2390e-06  0:03:24  622
   379  5.0195e-04  1.4802e-08  1.4350e-08  2.5746e-08  5.0608e-04  4.2671e-06  0:02:43  621
   380  5.1199e-04  1.5034e-08  1.4651e-08  2.5969e-08  5.0440e-04  4.2753e-06  0:04:14  620
   381  5.2154e-04  1.5221e-08  1.4894e-08  2.6114e-08  5.0199e-04  4.2791e-06  0:03:23  619
   382  5.2866e-04  1.5352e-08  1.5105e-08  2.6168e-08  4.9844e-04  4.2223e-06  0:02:42  618
   383  5.3377e-04  1.5444e-08  1.5256e-08  2.6179e-08  4.9356e-04  4.1877e-06  0:04:13  617
   384  5.4101e-04  1.5500e-08  1.5381e-08  2.6096e-08  4.8781e-04  4.1598e-06  0:03:22  616
   385  5.4649e-04  1.5512e-08  1.5479e-08  2.5971e-08  4.8127e-04  4.0923e-06  0:02:41  615

  iter  continuity  x-velocity  y-velocity  z-velocity           k       omega     time/iter
   386  5.5157e-04  1.5472e-08  1.5506e-08  2.5832e-08  4.7341e-04  4.0641e-06  0:04:12  614
   387  5.5515e-04  1.5404e-08  1.5483e-08  2.5579e-08  4.6432e-04  4.0130e-06  0:03:21  613
   388  5.5753e-04  1.5262e-08  1.5408e-08  2.5300e-08  4.5458e-04  3.9451e-06  0:02:41  612
   389  5.5207e-04  1.5088e-08  1.5130e-08  2.4913e-08  4.4431e-04  3.8733e-06  0:04:10  611
   390  5.4203e-04  1.4842e-08  1.4748e-08  2.4462e-08  4.3338e-04  3.8054e-06  0:03:20  610
   391  5.3078e-04  1.4520e-08  1.4385e-08  2.3970e-08  4.2227e-04  3.7662e-06  0:02:40  609
   392  5.1759e-04  1.4131e-08  1.4017e-08  2.3383e-08  4.1062e-04  3.6759e-06  0:04:09  608
   393  5.0429e-04  1.3657e-08  1.3622e-08  2.2767e-08  4.0010e-04  3.5888e-06  0:03:19  607
   394  4.9074e-04  1.3231e-08  1.3265e-08  2.2065e-08  3.9009e-04  3.5109e-06  0:02:39  606
   395  4.7741e-04  1.2808e-08  1.2895e-08  2.1380e-08  3.7954e-04  3.4730e-06  0:04:08  605
   396  4.6492e-04  1.2365e-08  1.2506e-08  2.0643e-08  3.6959e-04  3.4209e-06  0:03:18  604

  iter  continuity  x-velocity  y-velocity  z-velocity           k       omega     time/iter
   397  4.5207e-04  1.1900e-08  1.2083e-08  1.9903e-08  3.6068e-04  3.3601e-06  0:02:38  603
   398  4.3743e-04  1.1377e-08  1.1633e-08  1.9149e-08  3.5185e-04  3.3113e-06  0:04:07  602
   399  4.2188e-04  1.0911e-08  1.1180e-08  1.8425e-08  3.4350e-04  3.2408e-06  0:03:17  601
   400  4.0574e-04  1.0487e-08  1.0743e-08  1.7692e-08  3.3602e-04  3.1808e-06  0:02:37  600
   401  3.9060e-04  1.0106e-08  1.0299e-08  1.7020e-08  3.2940e-04  3.1223e-06  0:04:05  599
   402  3.7474e-04  9.7562e-09  9.8770e-09  1.6392e-08  3.2355e-04  3.1294e-06  0:03:16  598
   403  3.5830e-04  9.4136e-09  9.4700e-09  1.5790e-08  3.1845e-04  3.0601e-06  0:02:37  597
   404  3.4322e-04  9.1499e-09  9.0850e-09  1.5327e-08  3.1488e-04  3.0333e-06  0:04:04  596
   405  3.2955e-04  8.9523e-09  8.7784e-09  1.4883e-08  3.1110e-04  3.0090e-06  0:03:15  595
   406  3.1785e-04  8.7954e-09  8.5496e-09  1.4600e-08  3.0838e-04  3.0046e-06  0:02:36  594
   407  3.0769e-04  8.6922e-09  8.4024e-09  1.4335e-08  3.0613e-04  2.9845e-06  0:04:03  593

  iter  continuity  x-velocity  y-velocity  z-velocity           k       omega     time/iter
   408  2.9921e-04  8.6334e-09  8.3294e-09  1.4259e-08  3.0440e-04  2.9863e-06  0:03:14  592
   409  2.9413e-04  8.6491e-09  8.3557e-09  1.4263e-08  3.0321e-04  2.9967e-06  0:02:35  591
   410  2.9041e-04  8.7392e-09  8.4308e-09  1.4328e-08  3.0216e-04  3.0733e-06  0:04:02  590
   411  2.9117e-04  8.8597e-09  8.5399e-09  1.4552e-08  3.0117e-04  3.0897e-06  0:03:13  589
   412  2.9175e-04  8.9974e-09  8.6825e-09  1.4766e-08  3.0011e-04  3.0673e-06  0:02:34  588
   413  2.9461e-04  9.1543e-09  8.8413e-09  1.5046e-08  2.9913e-04  3.0850e-06  0:04:01  587
   414  2.9795e-04  9.3373e-09  9.0098e-09  1.5335e-08  2.9767e-04  3.0933e-06  0:03:12  586
   415  3.0103e-04  9.5007e-09  9.1842e-09  1.5621e-08  2.9626e-04  3.0864e-06  0:02:33  585
   416  3.0563e-04  9.6372e-09  9.3299e-09  1.5862e-08  2.9443e-04  3.0952e-06  0:03:59  584
   417  3.1007e-04  9.7298e-09  9.4525e-09  1.6061e-08  2.9189e-04  3.0817e-06  0:03:11  583
   418  3.1321e-04  9.7854e-09  9.5445e-09  1.6212e-08  2.8878e-04  3.0736e-06  0:02:33  582

  iter  continuity  x-velocity  y-velocity  z-velocity           k       omega     time/iter
   419  3.1594e-04  9.8289e-09  9.6132e-09  1.6336e-08  2.8499e-04  3.0517e-06  0:03:58  581
   420  3.1658e-04  9.8459e-09  9.6354e-09  1.6323e-08  2.8082e-04  3.0307e-06  0:03:10  580
   421  3.1791e-04  9.8145e-09  9.6066e-09  1.6304e-08  2.7624e-04  3.0120e-06  0:02:32  579
   422  3.1731e-04  9.7442e-09  9.5483e-09  1.6196e-08  2.7100e-04  2.9791e-06  0:03:57  578
   423  3.1540e-04  9.6100e-09  9.4379e-09  1.5988e-08  2.6527e-04  2.9276e-06  0:03:09  577
   424  3.1325e-04  9.4489e-09  9.3043e-09  1.5775e-08  2.5918e-04  2.8920e-06  0:02:31  576
   425  3.1126e-04  9.2776e-09  9.1445e-09  1.5511e-08  2.5267e-04  2.8751e-06  0:03:56  575
   426  3.0730e-04  9.0755e-09  8.9282e-09  1.5191e-08  2.4568e-04  2.8404e-06  0:03:08  574
   427  3.0312e-04  8.8461e-09  8.7181e-09  1.4813e-08  2.3815e-04  2.7576e-06  0:02:30  573
   428  2.9753e-04  8.5890e-09  8.4676e-09  1.4370e-08  2.3124e-04  2.7030e-06  0:03:54  572
   429  2.9164e-04  8.3285e-09  8.2003e-09  1.3954e-08  2.2478e-04  2.6537e-06  0:03:07  571

  iter  continuity  x-velocity  y-velocity  z-velocity           k       omega     time/iter
   430  2.8530e-04  8.0531e-09  7.9266e-09  1.3522e-08  2.1919e-04  2.5662e-06  0:04:24  570
   431  2.7815e-04  7.7831e-09  7.6434e-09  1.3072e-08  2.1441e-04  2.4886e-06  0:03:30  569
   432  2.7002e-04  7.4995e-09  7.3328e-09  1.2612e-08  2.1008e-04  2.4548e-06  0:02:48  568
   433  2.6380e-04  7.2269e-09  7.0306e-09  1.2180e-08  2.0592e-04  2.4337e-06  0:04:08  567
   434  2.5511e-04  6.9393e-09  6.7362e-09  1.1735e-08  2.0145e-04  2.4201e-06  0:03:18  566
   435  2.4735e-04  6.6702e-09  6.4469e-09  1.1316e-08  1.9674e-04  2.3555e-06  0:02:38  565
   436  2.3850e-04  6.4044e-09  6.1801e-09  1.0843e-08  1.9191e-04  2.3192e-06  0:03:59  564
   437  2.3049e-04  6.1535e-09  5.9296e-09  1.0430e-08  1.8706e-04  2.2993e-06  0:03:11  563
   438  2.2378e-04  5.9027e-09  5.6667e-09  1.0034e-08  1.8201e-04  2.2706e-06  0:02:32  562
   439  2.1595e-04  5.6634e-09  5.4393e-09  9.6563e-09  1.7684e-04  2.1954e-06  0:03:54  561
   440  2.0832e-04  5.4385e-09  5.2152e-09  9.2430e-09  1.7174e-04  2.1525e-06  0:03:07  560

  iter  continuity  x-velocity  y-velocity  z-velocity           k       omega     time/iter
   441  2.0124e-04  5.2412e-09  5.0021e-09  8.8896e-09  1.6690e-04  2.1606e-06  0:02:29  559
   442  1.9437e-04  5.0691e-09  4.8454e-09  8.5543e-09  1.6182e-04  2.1381e-06  0:03:51  558
   443  1.8785e-04  4.9013e-09  4.6728e-09  8.2408e-09  1.5684e-04  2.0676e-06  0:03:04  557
   444  1.8105e-04  4.7463e-09  4.5281e-09  7.9742e-09  1.5204e-04  2.0372e-06  0:02:27  556
   445  1.7578e-04  4.6279e-09  4.4208e-09  7.7246e-09  1.4765e-04  2.0242e-06  0:03:48  555
   446  1.7003e-04  4.5085e-09  4.3104e-09  7.4972e-09  1.4322e-04  2.0000e-06  0:03:02  554
   447  1.6518e-04  4.4157e-09  4.2124e-09  7.2557e-09  1.3890e-04  1.9355e-06  0:02:26  553
   448  1.6065e-04  4.3265e-09  4.1336e-09  7.0520e-09  1.3487e-04  1.8929e-06  0:03:47  552
   449  1.5749e-04  4.2466e-09  4.0574e-09  6.8963e-09  1.3132e-04  1.9158e-06  0:03:01  551
   450  1.5395e-04  4.1847e-09  3.9912e-09  6.8192e-09  1.2793e-04  1.8918e-06  0:04:15  550
   451  1.5106e-04  4.1386e-09  3.9461e-09  6.6946e-09  1.2481e-04  1.8496e-06  0:03:23  549

  iter  continuity  x-velocity  y-velocity  z-velocity           k       omega     time/iter
   452  1.4873e-04  4.1066e-09  3.9006e-09  6.6134e-09  1.2174e-04  1.8555e-06  0:02:42  548
   453  1.4804e-04  4.0748e-09  3.8489e-09  6.5184e-09  1.1874e-04  1.8287e-06  0:03:59  547
   454  1.4538e-04  4.0095e-09  3.7953e-09  6.4038e-09  1.1567e-04  1.7441e-06  0:03:11  546
   455  1.4403e-04  3.9515e-09  3.7338e-09  6.3688e-09  1.1292e-04  1.7177e-06  0:04:21  545
   456  1.4127e-04  3.8855e-09  3.6673e-09  6.2250e-09  1.1013e-04  1.6725e-06  0:03:29  544
   457  1.3940e-04  3.8107e-09  3.5958e-09  6.1502e-09  1.0780e-04  1.6664e-06  0:02:47  543
   458  1.3695e-04  3.7291e-09  3.5189e-09  6.0160e-09  1.0550e-04  1.6399e-06  0:04:02  542
   459  1.3437e-04  3.6393e-09  3.4437e-09  5.8838e-09  1.0335e-04  1.5706e-06  0:03:13  541
   460  1.3144e-04  3.5391e-09  3.3693e-09  5.7432e-09  1.0123e-04  1.5519e-06  0:02:34  540
   461  1.2860e-04  3.4433e-09  3.2861e-09  5.6085e-09  9.9209e-05  1.5950e-06  0:03:51  539
   462  1.2606e-04  3.3538e-09  3.2088e-09  5.4747e-09  9.6670e-05  1.5541e-06  0:03:04  538

  iter  continuity  x-velocity  y-velocity  z-velocity           k       omega     time/iter
   463  1.2397e-04  3.2595e-09  3.1274e-09  5.3053e-09  9.4138e-05  1.4939e-06  0:02:27  537
   464  1.2122e-04  3.1501e-09  3.0552e-09  5.1455e-09  9.1487e-05  1.4805e-06  0:03:45  536
   465  1.1849e-04  3.0520e-09  2.9807e-09  4.9707e-09  8.8866e-05  1.4282e-06  0:02:59  535
   466  1.1473e-04  2.9403e-09  2.9016e-09  4.8339e-09  8.6264e-05  1.4066e-06  0:02:23  534
   467  1.1163e-04  2.8583e-09  2.8443e-09  4.6806e-09  8.3855e-05  1.3984e-06  0:03:41  533
   468  1.0959e-04  2.7827e-09  2.7825e-09  4.5636e-09  8.1373e-05  1.3708e-06  0:02:56  532
   469  1.0740e-04  2.7105e-09  2.7391e-09  4.4423e-09  7.8837e-05  1.3266e-06  0:02:21  531
   470  1.0487e-04  2.6255e-09  2.6933e-09  4.3283e-09  7.6504e-05  1.3109e-06  0:01:53  530
   471  1.0303e-04  2.5563e-09  2.6362e-09  4.2766e-09  7.4212e-05  1.2933e-06  0:03:16  529
   472  9.9862e-05  2.4979e-09  2.5884e-09  4.1312e-09  7.1798e-05  1.2326e-06  0:02:36  528
   473  9.7070e-05  2.4355e-09  2.5236e-09  4.0619e-09  6.9560e-05  1.2053e-06  0:02:05  527

  iter  continuity  x-velocity  y-velocity  z-velocity           k       omega     time/iter
   474  9.5239e-05  2.3707e-09  2.4643e-09  3.9656e-09  6.7613e-05  1.2147e-06  0:03:25  526
   475  9.3222e-05  2.3173e-09  2.4312e-09  3.8839e-09  6.6074e-05  1.2010e-06  0:02:44  525
   476  9.2825e-05  2.2685e-09  2.3734e-09  3.8722e-09  6.4887e-05  1.1950e-06  0:02:11  524
   477  9.0907e-05  2.2403e-09  2.3223e-09  3.7707e-09  6.3793e-05  1.1461e-06  0:03:29  523
   478  8.8383e-05  2.1834e-09  2.2662e-09  3.7118e-09  6.2956e-05  1.1454e-06  0:02:47  522
   479  8.7061e-05  2.1443e-09  2.2148e-09  3.6328e-09  6.2265e-05  1.1145e-06  0:02:13  521
   480  8.4989e-05  2.0919e-09  2.1581e-09  3.5907e-09  6.1935e-05  1.0807e-06  0:03:30  520
   481  8.3656e-05  2.0543e-09  2.1277e-09  3.5376e-09  6.1728e-05  1.0695e-06  0:02:48  519
   482  8.2104e-05  2.0151e-09  2.0776e-09  3.4988e-09  6.1615e-05  1.0816e-06  0:02:14  518
   483  8.1018e-05  1.9901e-09  2.0223e-09  3.4735e-09  6.1373e-05  1.0857e-06  0:03:30  517
   484  8.0081e-05  1.9577e-09  1.9825e-09  3.4030e-09  6.0988e-05  1.0289e-06  0:02:48  516

  iter  continuity  x-velocity  y-velocity  z-velocity           k       omega     time/iter
   485  7.8606e-05  1.9334e-09  1.9420e-09  3.3827e-09  6.0922e-05  1.0100e-06  0:02:14  515
   486  7.7255e-05  1.9131e-09  1.9030e-09  3.3734e-09  6.0766e-05  1.0242e-06  0:03:30  514
   487  7.6154e-05  1.9011e-09  1.8801e-09  3.3486e-09  6.0385e-05  1.0191e-06  0:02:48  513
   488  7.4591e-05  1.8931e-09  1.8398e-09  3.3338e-09  5.9956e-05  1.0256e-06  0:03:56  512
   489  7.5108e-05  1.9039e-09  1.8202e-09  3.3360e-09  5.9337e-05  9.9529e-07  0:03:09  511
   490  7.4046e-05  1.8912e-09  1.8038e-09  3.3041e-09  5.8535e-05  9.7748e-07  0:02:31  510
   491  7.4396e-05  1.8830e-09  1.7798e-09  3.3318e-09  5.7813e-05  1.0228e-06  0:03:42  509
   492  7.3258e-05  1.8867e-09  1.7684e-09  3.2711e-09  5.6912e-05  1.0373e-06  0:02:57  508
   493  7.3175e-05  1.8918e-09  1.7505e-09  3.2380e-09  5.5962e-05  1.0068e-06  0:02:22  507
   494  7.1831e-05  1.8852e-09  1.7318e-09  3.1978e-09  5.4952e-05  9.9239e-07  0:03:34  506
   495  7.1529e-05  1.8800e-09  1.7213e-09  3.1671e-09  5.4009e-05  9.9139e-07  0:02:51  505

  iter  continuity  x-velocity  y-velocity  z-velocity           k       omega     time/iter
   496  7.0900e-05  1.8647e-09  1.7200e-09  3.1290e-09  5.2964e-05  9.9903e-07  0:02:17  504
   497  7.0776e-05  1.8567e-09  1.7231e-09  3.0783e-09  5.2049e-05  9.8479e-07  0:01:49  503
   498  6.9526e-05  1.8321e-09  1.6989e-09  3.0419e-09  5.0806e-05  9.7160e-07  0:03:07  502
   499  6.8983e-05  1.8152e-09  1.6812e-09  2.9771e-09  4.9506e-05  9.4581e-07  0:02:30  501
   500  6.8661e-05  1.7819e-09  1.6652e-09  2.9401e-09  4.8243e-05  9.3410e-07  0:01:59  500
   501  6.8436e-05  1.7457e-09  1.6433e-09  2.8795e-09  4.7185e-05  9.6167e-07  0:03:15  499
   502  6.7607e-05  1.7082e-09  1.6332e-09  2.8059e-09  4.6068e-05  9.6532e-07  0:02:36  498
   503  6.6603e-05  1.6774e-09  1.6110e-09  2.7482e-09  4.4941e-05  9.3233e-07  0:02:04  497
   504  6.6721e-05  1.6405e-09  1.5762e-09  2.7162e-09  4.4027e-05  9.3629e-07  0:03:19  496
   505  6.6891e-05  1.6128e-09  1.5622e-09  2.6715e-09  4.3400e-05  9.3342e-07  0:02:39  495
   506  6.5181e-05  1.5675e-09  1.5305e-09  2.6115e-09  4.2678e-05  8.9435e-07  0:02:07  494

  iter  continuity  x-velocity  y-velocity  z-velocity           k       omega     time/iter
   507  6.3765e-05  1.5238e-09  1.4964e-09  2.5464e-09  4.2145e-05  9.0382e-07  0:03:20  493
   508  6.2535e-05  1.4773e-09  1.4738e-09  2.4771e-09  4.1601e-05  8.7214e-07  0:02:39  492
   509  6.1619e-05  1.4416e-09  1.4426e-09  2.4402e-09  4.1206e-05  8.6096e-07  0:02:07  491
   510  6.0503e-05  1.4073e-09  1.4045e-09  2.3749e-09  4.0927e-05  8.8369e-07  0:03:20  490
   511  5.9286e-05  1.3751e-09  1.3855e-09  2.3393e-09  4.0565e-05  8.9142e-07  0:02:39  489
   512  5.8090e-05  1.3435e-09  1.3626e-09  2.2881e-09  4.0056e-05  8.6086e-07  0:02:07  488
   513  5.6884e-05  1.3091e-09  1.3218e-09  2.2237e-09  3.9576e-05  8.6628e-07  0:03:19  487
   514  5.5426e-05  1.2709e-09  1.3030e-09  2.1777e-09  3.9168e-05  8.9040e-07  0:02:39  486
   515  5.4604e-05  1.2412e-09  1.2788e-09  2.1256e-09  3.8457e-05  8.3281e-07  0:02:07  485
   516  5.2463e-05  1.1970e-09  1.2251e-09  2.0677e-09  3.7818e-05  8.2667e-07  0:03:18  484
   517  5.1779e-05  1.1691e-09  1.2053e-09  2.0339e-09  3.7216e-05  8.1958e-07  0:02:38  483

  iter  continuity  x-velocity  y-velocity  z-velocity           k       omega     time/iter
   518  5.0465e-05  1.1439e-09  1.1750e-09  1.9875e-09  3.6598e-05  8.3185e-07  0:03:43  482
   519  4.9832e-05  1.1354e-09  1.1528e-09  1.9900e-09  3.6114e-05  8.7416e-07  0:02:58  481
   520  4.9124e-05  1.1246e-09  1.1367e-09  1.9160e-09  3.5444e-05  8.4711e-07  0:02:22  480
   521  4.8178e-05  1.0985e-09  1.1073e-09  1.9071e-09  3.4873e-05  7.8159e-07  0:03:29  479
   522  4.6880e-05  1.0803e-09  1.0847e-09  1.9049e-09  3.4406e-05  8.0130e-07  0:02:47  478
   523  4.5943e-05  1.0713e-09  1.0799e-09  1.8912e-09  3.3979e-05  8.3050e-07  0:02:13  477
   524  4.5038e-05  1.0721e-09  1.0749e-09  1.8956e-09  3.3377e-05  8.0460e-07  0:01:46  476
   525  4.4423e-05  1.0811e-09  1.0831e-09  1.8664e-09  3.2980e-05  7.8450e-07  0:03:00  475
   526  4.3561e-05  1.0694e-09  1.0816e-09  1.8643e-09  3.2502e-05  7.6419e-07  0:02:24  474
   527  4.4280e-05  1.0919e-09  1.0903e-09  1.9093e-09  3.2309e-05  7.5359e-07  0:01:55  473
   528  4.4688e-05  1.1157e-09  1.1076e-09  1.9275e-09  3.2248e-05  7.8281e-07  0:03:06  472

  iter  continuity  x-velocity  y-velocity  z-velocity           k       omega     time/iter
   529  4.6165e-05  1.1543e-09  1.1406e-09  1.9862e-09  3.2285e-05  8.2748e-07  0:02:28  471
   530  4.6485e-05  1.1897e-09  1.1735e-09  2.0153e-09  3.1988e-05  8.0592e-07  0:01:58  470
   531  4.6599e-05  1.2060e-09  1.1826e-09  2.0065e-09  3.1766e-05  7.7711e-07  0:03:08  469
   532  4.6792e-05  1.2127e-09  1.2018e-09  2.0107e-09  3.1628e-05  7.8309e-07  0:02:30  468
   533  4.7627e-05  1.2205e-09  1.2083e-09  2.0501e-09  3.1470e-05  7.7503e-07  0:02:00  467
   534  4.8395e-05  1.2287e-09  1.2077e-09  2.0812e-09  3.1297e-05  7.7536e-07  0:03:09  466
   535  4.8671e-05  1.2354e-09  1.2190e-09  2.0387e-09  3.0830e-05  7.3250e-07  0:02:31  465
   536  4.8630e-05  1.2175e-09  1.2108e-09  2.0282e-09  3.0485e-05  7.5397e-07  0:02:00  464
   537  4.8864e-05  1.2038e-09  1.1990e-09  1.9992e-09  3.0039e-05  7.7137e-07  0:03:09  463
   538  4.7415e-05  1.1692e-09  1.1688e-09  1.9345e-09  2.9548e-05  7.5883e-07  0:02:31  462
   539  4.6801e-05  1.1453e-09  1.1430e-09  1.9108e-09  2.9060e-05  7.3650e-07  0:02:00  461

  iter  continuity  x-velocity  y-velocity  z-velocity           k       omega     time/iter
   540  4.5604e-05  1.1101e-09  1.1093e-09  1.8486e-09  2.8423e-05  7.2381e-07  0:03:08  460
   541  4.5829e-05  1.0823e-09  1.0911e-09  1.7989e-09  2.7905e-05  7.6471e-07  0:02:30  459
   542  4.4568e-05  1.0335e-09  1.0598e-09  1.7385e-09  2.7160e-05  7.3065e-07  0:02:00  458
   543  4.3176e-05  9.9012e-10  1.0077e-09  1.6647e-09  2.6428e-05  7.0442e-07  0:03:07  457
   544  4.1253e-05  9.4465e-10  9.6604e-10  1.5900e-09  2.5723e-05  6.8321e-07  0:02:29  456
   545  4.1006e-05  9.2173e-10  9.3256e-10  1.5835e-09  2.5236e-05  6.7374e-07  0:01:59  455
   546  4.0012e-05  8.9097e-10  9.0068e-10  1.5245e-09  2.4831e-05  6.8281e-07  0:03:06  454
   547  3.9263e-05  8.6678e-10  8.8930e-10  1.4856e-09  2.4558e-05  6.9679e-07  0:02:28  453
   548  3.8918e-05  8.4267e-10  8.6380e-10  1.4634e-09  2.4228e-05  6.8239e-07  0:03:29  452
   549  3.7407e-05  8.2454e-10  8.3090e-10  1.4386e-09  2.3858e-05  6.5334e-07  0:02:47  451
   550  3.6178e-05  8.0222e-10  7.9808e-10  1.3767e-09  2.3638e-05  6.8035e-07  0:02:13  450

  iter  continuity  x-velocity  y-velocity  z-velocity           k       omega     time/iter
   551  3.5386e-05  7.7650e-10  7.8008e-10  1.3458e-09  2.3325e-05  6.6021e-07  0:01:46  449
   552  3.4316e-05  7.5528e-10  7.6180e-10  1.3286e-09  2.3077e-05  6.6662e-07  0:02:54  448
   553  3.3476e-05  7.3090e-10  7.4437e-10  1.2956e-09  2.2794e-05  6.4846e-07  0:02:19  447
   554  3.2689e-05  7.1004e-10  7.1604e-10  1.3062e-09  2.2513e-05  6.6242e-07  0:01:51  446
   555  3.2968e-05  7.1508e-10  6.9768e-10  1.2596e-09  2.2182e-05  6.7435e-07  0:02:58  445
   556  3.2594e-05  6.9699e-10  6.8340e-10  1.2548e-09  2.1756e-05  6.9368e-07  0:02:22  444
   557  3.2423e-05  6.9285e-10  6.8319e-10  1.2160e-09  2.1329e-05  6.6753e-07  0:01:53  443
   558  3.0866e-05  6.6784e-10  6.6581e-10  1.1993e-09  2.0763e-05  6.3868e-07  0:02:59  442
   559  3.0789e-05  6.5265e-10  6.5837e-10  1.1889e-09  2.0333e-05  6.6204e-07  0:02:23  441
   560  3.0093e-05  6.4976e-10  6.4729e-10  1.1420e-09  1.9868e-05  6.3391e-07  0:01:54  440
   561  3.0319e-05  6.4406e-10  6.2841e-10  1.1500e-09  1.9617e-05  6.5794e-07  0:02:59  439

  iter  continuity  x-velocity  y-velocity  z-velocity           k       omega     time/iter
   562  3.0245e-05  6.3763e-10  6.3477e-10  1.1274e-09  1.9198e-05  6.2923e-07  0:02:23  438
   563  3.0123e-05  6.3533e-10  6.3270e-10  1.1281e-09  1.8929e-05  6.1112e-07  0:01:54  437
   564  3.0420e-05  6.3333e-10  6.3043e-10  1.1452e-09  1.8751e-05  6.6177e-07  0:02:58  436
   565  3.0058e-05  6.6365e-10  6.4880e-10  1.1089e-09  1.8535e-05  6.4510e-07  0:02:22  435
   566  2.9805e-05  6.7221e-10  6.5248e-10  1.1462e-09  1.8456e-05  6.7073e-07  0:01:53  434
   567  3.0618e-05  6.9119e-10  6.7271e-10  1.1604e-09  1.8377e-05  6.5427e-07  0:02:57  433
   568  3.1025e-05  6.9588e-10  6.8894e-10  1.1723e-09  1.8447e-05  6.7980e-07  0:02:21  432
   569  3.1965e-05  7.1741e-10  7.1423e-10  1.2033e-09  1.8505e-05  6.5998e-07  0:01:53  431
   570  3.2099e-05  7.3404e-10  7.1528e-10  1.2313e-09  1.8568e-05  6.3707e-07  0:02:56  430
   571  3.2942e-05  7.5095e-10  7.3067e-10  1.2431e-09  1.8710e-05  6.2695e-07  0:02:21  429
   572  3.4061e-05  7.6480e-10  7.3945e-10  1.2656e-09  1.8770e-05  6.1996e-07  0:01:52  428

  iter  continuity  x-velocity  y-velocity  z-velocity           k       omega     time/iter
   573  3.3824e-05  7.6234e-10  7.3474e-10  1.2336e-09  1.8764e-05  6.2385e-07  0:02:55  427
   574  3.3032e-05  7.4379e-10  7.4134e-10  1.2225e-09  1.8800e-05  6.3780e-07  0:02:20  426
   575  3.3078e-05  7.4713e-10  7.3777e-10  1.2439e-09  1.8772e-05  6.4150e-07  0:01:51  425
   576  3.3105e-05  7.3698e-10  7.1236e-10  1.2130e-09  1.8627e-05  6.5260e-07  0:02:54  424
   577  3.2832e-05  7.2326e-10  7.0510e-10  1.1949e-09  1.8539e-05  6.7921e-07  0:02:19  423
   578  3.2609e-05  7.0382e-10  6.9149e-10  1.1854e-09  1.8278e-05  6.5026e-07  0:03:15  422
   579  3.1636e-05  6.8063e-10  6.6526e-10  1.1450e-09  1.7926e-05  6.1162e-07  0:02:36  421
   580  3.1564e-05  6.6195e-10  6.6192e-10  1.1652e-09  1.7763e-05  6.1539e-07  0:02:04  420
   581  3.1593e-05  6.6456e-10  6.5317e-10  1.1426e-09  1.7708e-05  6.4104e-07  0:03:03  419
   582  3.0233e-05  6.5393e-10  6.3899e-10  1.1006e-09  1.7496e-05  6.3339e-07  0:02:26  418
   583  3.0516e-05  6.4671e-10  6.3682e-10  1.1153e-09  1.7449e-05  6.4181e-07  0:03:20  417

  iter  continuity  x-velocity  y-velocity  z-velocity           k       omega     time/iter
   584  3.0003e-05  6.4632e-10  6.4082e-10  1.1246e-09  1.7559e-05  6.4263e-07  0:02:40  416
   585  3.0242e-05  6.5410e-10  6.5543e-10  1.1495e-09  1.7628e-05  6.2750e-07  0:02:07  415
   586  3.0505e-05  6.5517e-10  6.5313e-10  1.1433e-09  1.7699e-05  6.2993e-07  0:03:04  414
   587  2.9745e-05  6.5235e-10  6.5046e-10  1.1240e-09  1.7671e-05  5.7808e-07  0:02:27  413
   588  2.9669e-05  6.4059e-10  6.3480e-10  1.1200e-09  1.7750e-05  5.6915e-07  0:01:57  412
   589  3.0444e-05  6.3967e-10  6.3896e-10  1.1366e-09  1.7873e-05  5.7808e-07  0:02:56  411
   590  2.9828e-05  6.3799e-10  6.3128e-10  1.1136e-09  1.7798e-05  6.1698e-07  0:02:20  410
   591  2.9757e-05  6.3567e-10  6.2533e-10  1.0838e-09  1.7619e-05  6.3474e-07  0:01:52  409
   592  2.9283e-05  6.1131e-10  6.1954e-10  1.0296e-09  1.7334e-05  6.3125e-07  0:02:51  408
   593  2.8817e-05  5.9636e-10  5.9936e-10  1.0514e-09  1.7201e-05  6.1757e-07  0:02:16  407
   594  2.8368e-05  5.8053e-10  5.8137e-10  1.0266e-09  1.6907e-05  6.3749e-07  0:01:49  406

  iter  continuity  x-velocity  y-velocity  z-velocity           k       omega     time/iter
   595  2.8088e-05  5.8317e-10  5.9011e-10  1.0330e-09  1.6684e-05  6.6528e-07  0:02:48  405
   596  2.8598e-05  5.8382e-10  5.9019e-10  1.0181e-09  1.6248e-05  6.2429e-07  0:02:14  404
   597  2.9305e-05  5.8600e-10  5.8217e-10  1.0258e-09  1.6011e-05  6.1446e-07  0:01:47  403
   598  2.8785e-05  5.8054e-10  5.7973e-10  1.0256e-09  1.5666e-05  5.7926e-07  0:02:46  402
   599  2.8644e-05  5.7906e-10  5.7290e-10  1.0181e-09  1.5400e-05  5.4557e-07  0:02:12  401
   600  2.7592e-05  5.7117e-10  5.6452e-10  9.6668e-10  1.5235e-05  5.7359e-07  0:01:46  400
   601  2.8223e-05  5.7723e-10  5.7348e-10  9.9846e-10  1.5193e-05  6.0055e-07  0:02:44  399
   602  2.7931e-05  5.7993e-10  5.8659e-10  9.9460e-10  1.4934e-05  5.8714e-07  0:02:11  398
   603  2.7465e-05  5.6748e-10  5.6641e-10  9.7750e-10  1.4709e-05  5.6581e-07  0:01:44  397
   604  2.6951e-05  5.5236e-10  5.6164e-10  9.3723e-10  1.4527e-05  5.8485e-07  0:02:43  396
   605  2.6311e-05  5.5315e-10  5.6426e-10  9.2903e-10  1.4416e-05  5.7058e-07  0:02:10  395

  iter  continuity  x-velocity  y-velocity  z-velocity           k       omega     time/iter
   606  2.7180e-05  5.5845e-10  5.5129e-10  9.6128e-10  1.4253e-05  5.7120e-07  0:01:44  394
   607  2.7105e-05  5.7418e-10  5.7005e-10  9.2701e-10  1.4042e-05  5.6672e-07  0:02:41  393
   608  2.6814e-05  5.7378e-10  5.6267e-10  9.6053e-10  1.3976e-05  5.8141e-07  0:02:09  392
   609  2.7468e-05  5.8514e-10  5.6583e-10  9.6567e-10  1.3950e-05  5.9796e-07  0:01:43  391
   610  2.6110e-05  5.8614e-10  5.7475e-10  9.4409e-10  1.3981e-05  5.9449e-07  0:02:40  390
   611  2.7099e-05  5.9913e-10  5.7286e-10  9.6990e-10  1.4084e-05  6.1018e-07  0:02:08  389
   612  2.7052e-05  6.0017e-10  5.7470e-10  9.8171e-10  1.4032e-05  6.0323e-07  0:01:42  388
   613  2.8238e-05  5.9947e-10  5.7884e-10  9.9303e-10  1.4080e-05  5.9253e-07  0:02:39  387
   614  2.7326e-05  5.7378e-10  5.6251e-10  9.8578e-10  1.4056e-05  5.8170e-07  0:02:07  386
   615  2.6654e-05  5.6229e-10  5.4290e-10  9.3167e-10  1.4002e-05  5.5215e-07  0:01:41  385
   616  2.6103e-05  5.4640e-10  5.3223e-10  9.2088e-10  1.3893e-05  5.3674e-07  0:02:37  384

  iter  continuity  x-velocity  y-velocity  z-velocity           k       omega     time/iter
   617  2.5778e-05  5.3393e-10  5.2129e-10  9.1962e-10  1.3936e-05  5.3418e-07  0:02:06  383
   618  2.5413e-05  5.2407e-10  5.2178e-10  8.9912e-10  1.3958e-05  5.6698e-07  0:01:40  382
   619  2.5053e-05  5.1093e-10  5.2419e-10  9.0016e-10  1.3957e-05  5.9041e-07  0:02:36  381
   620  2.5004e-05  5.0965e-10  5.2718e-10  8.8130e-10  1.3950e-05  5.6566e-07  0:02:05  380
   621  2.5374e-05  5.1475e-10  5.2404e-10  9.1338e-10  1.4063e-05  5.7709e-07  0:01:39  379
   622  2.5424e-05  5.3534e-10  5.4022e-10  9.0396e-10  1.4221e-05  5.9005e-07  0:02:35  378
   623  2.5680e-05  5.5159e-10  5.4904e-10  9.4596e-10  1.4504e-05  5.8791e-07  0:02:04  377
   624  2.6687e-05  5.7268e-10  5.6811e-10  9.6442e-10  1.4731e-05  5.6994e-07  0:01:39  376
   625  2.7750e-05  5.8270e-10  5.8597e-10  9.7413e-10  1.4905e-05  5.3243e-07  0:02:34  375
   626  2.7724e-05  5.8468e-10  5.8396e-10  1.0054e-09  1.5014e-05  5.8436e-07  0:02:03  374
   627  2.7675e-05  5.8914e-10  5.8360e-10  9.6764e-10  1.4942e-05  6.0270e-07  0:01:38  373

  iter  continuity  x-velocity  y-velocity  z-velocity           k       omega     time/iter
   628  2.6545e-05  5.7351e-10  5.7115e-10  9.7031e-10  1.4731e-05  5.8395e-07  0:02:32  372
   629  2.6240e-05  5.6908e-10  5.7747e-10  9.6085e-10  1.4665e-05  5.6524e-07  0:02:02  371
   630  2.6312e-05  5.5065e-10  5.5790e-10  9.7290e-10  1.4400e-05  5.7544e-07  0:01:37  370
   631  2.6514e-05  5.4508e-10  5.4589e-10  9.5349e-10  1.4131e-05  5.8991e-07  0:02:31  369
   632  2.5499e-05  5.2577e-10  5.3589e-10  9.2648e-10  1.3791e-05  5.6984e-07  0:02:01  368
   633  2.5402e-05  5.2135e-10  5.2112e-10  9.0312e-10  1.3544e-05  5.4883e-07  0:01:36  367
   634  2.4720e-05  5.0532e-10  5.1385e-10  9.2627e-10  1.3282e-05  5.5965e-07  0:02:30  366
   635  2.5217e-05  5.1658e-10  5.2488e-10  8.9798e-10  1.3067e-05  5.3908e-07  0:02:00  365
   636  2.4861e-05  5.0771e-10  5.0786e-10  9.0340e-10  1.3043e-05  5.7518e-07  0:01:35  364
   637  2.4671e-05  5.0720e-10  5.1984e-10  8.8037e-10  1.2965e-05  5.9697e-07  0:02:29  363
   638  2.4261e-05  5.0104e-10  5.1226e-10  9.0049e-10  1.2915e-05  5.5382e-07  0:01:59  362

  iter  continuity  x-velocity  y-velocity  z-velocity           k       omega     time/iter
   639  2.4647e-05  5.0059e-10  5.0463e-10  9.1136e-10  1.2949e-05  5.5959e-07  0:01:35  361
   640  2.4306e-05  4.9658e-10  5.1471e-10  8.6947e-10  1.2979e-05  5.6412e-07  0:02:28  360
   641  2.4489e-05  4.9084e-10  5.1062e-10  8.6305e-10  1.3095e-05  5.5280e-07  0:01:58  359
   642  2.4019e-05  4.9067e-10  5.0500e-10  8.5642e-10  1.3132e-05  5.5667e-07  0:01:34  358
   643  2.4191e-05  4.8918e-10  5.0088e-10  8.5684e-10  1.3140e-05  5.5899e-07  0:02:26  357
   644  2.3728e-05  4.8641e-10  4.9786e-10  8.4252e-10  1.3019e-05  5.6514e-07  0:01:57  356
   645  2.3739e-05  4.8809e-10  4.9102e-10  8.5451e-10  1.3003e-05  5.9584e-07  0:01:33  355
   646  2.3903e-05  4.8644e-10  5.0119e-10  8.1786e-10  1.2790e-05  5.8726e-07  0:02:25  354
   647  2.3837e-05  4.8565e-10  4.9357e-10  8.4544e-10  1.2648e-05  5.8507e-07  0:01:56  353
   648  2.4581e-05  4.9387e-10  4.7725e-10  8.3800e-10  1.2476e-05  5.8541e-07  0:01:32  352
   649  2.4761e-05  5.0448e-10  4.8130e-10  8.3086e-10  1.2416e-05  5.6513e-07  0:02:24  351

  iter  continuity  x-velocity  y-velocity  z-velocity           k       omega     time/iter
   650  2.4522e-05  4.9533e-10  4.8121e-10  8.4038e-10  1.2330e-05  5.6689e-07  0:01:55  350
   651  2.5263e-05  5.0139e-10  4.9070e-10  8.5259e-10  1.2264e-05  5.6406e-07  0:01:32  349
   652  2.4895e-05  4.9945e-10  4.9608e-10  8.2258e-10  1.2007e-05  5.3698e-07  0:02:23  348
   653  2.5113e-05  4.9451e-10  4.7632e-10  8.3816e-10  1.1922e-05  5.4541e-07  0:01:54  347
   654  2.3480e-05  4.7404e-10  4.5982e-10  7.7511e-10  1.1662e-05  5.3084e-07  0:01:31  346
   655  2.3194e-05  4.5226e-10  4.5427e-10  7.7984e-10  1.1581e-05  5.5027e-07  0:02:21  345
   656  2.3026e-05  4.4405e-10  4.4651e-10  7.7185e-10  1.1274e-05  5.4471e-07  0:01:53  344
   657  2.3255e-05  4.4340e-10  4.4514e-10  7.7041e-10  1.1274e-05  5.4996e-07  0:01:30  343
   658  2.2615e-05  4.3461e-10  4.4882e-10  7.4036e-10  1.1223e-05  5.7097e-07  0:02:20  342
   659  2.2243e-05  4.3839e-10  4.4536e-10  7.6514e-10  1.1203e-05  5.6795e-07  0:01:52  341
   660  2.2522e-05  4.4750e-10  4.4688e-10  7.6698e-10  1.1044e-05  5.3094e-07  0:01:29  340

  iter  continuity  x-velocity  y-velocity  z-velocity           k       omega     time/iter
   661  2.2587e-05  4.5929e-10  4.5369e-10  7.7525e-10  1.1271e-05  5.2080e-07  0:02:19  339
   662  2.3059e-05  4.7975e-10  4.7631e-10  8.0214e-10  1.1470e-05  5.3317e-07  0:01:51  338
   663  2.2730e-05  4.8405e-10  4.7882e-10  8.0647e-10  1.1577e-05  5.3568e-07  0:01:28  337
   664  2.2709e-05  4.7767e-10  4.7598e-10  7.9879e-10  1.1716e-05  5.4172e-07  0:02:18  336
   665  2.3323e-05  4.8357e-10  4.8378e-10  8.1641e-10  1.1915e-05  5.3434e-07  0:01:50  335
   666  2.3312e-05  4.8046e-10  4.7869e-10  8.1321e-10  1.1939e-05  5.5430e-07  0:01:28  334
   667  2.3285e-05  4.8012e-10  4.8332e-10  8.1252e-10  1.2059e-05  5.9168e-07  0:01:10  333
   668  2.3697e-05  4.7843e-10  4.9150e-10  7.9844e-10  1.1933e-05  5.7354e-07  0:02:02  332
   669  2.3838e-05  4.7543e-10  4.8292e-10  8.2246e-10  1.1858e-05  5.5691e-07  0:01:37  331
   670  2.3187e-05  4.6303e-10  4.7353e-10  7.7864e-10  1.1671e-05  5.5045e-07  0:02:24  330
   671  2.3384e-05  4.5857e-10  4.6538e-10  7.7895e-10  1.1599e-05  5.5968e-07  0:01:55  329

  iter  continuity  x-velocity  y-velocity  z-velocity           k       omega     time/iter
   672  2.2568e-05  4.5139e-10  4.5753e-10  7.5503e-10  1.1470e-05  6.0622e-07  0:01:31  328
   673  2.3130e-05  4.5336e-10  4.6565e-10  7.7328e-10  1.1358e-05  6.0728e-07  0:02:18  327
   674  2.3412e-05  4.4920e-10  4.6679e-10  8.0924e-10  1.1279e-05  5.7836e-07  0:01:50  326
   675  2.3195e-05  4.5894e-10  4.5908e-10  7.7716e-10  1.1309e-05  5.7779e-07  0:01:28  325
   676  2.3702e-05  4.5841e-10  4.5665e-10  7.8474e-10  1.1482e-05  5.9386e-07  0:02:15  324
   677  2.3855e-05  4.7708e-10  4.6618e-10  7.7487e-10  1.1562e-05  5.7799e-07  0:01:48  323
   678  2.3875e-05  4.6806e-10  4.5804e-10  7.7095e-10  1.1508e-05  5.3972e-07  0:01:26  322
[...]
   821  2.1941e-05  4.4974e-10  4.5565e-10  7.8847e-10  1.1039e-05  5.5571e-07  0:00:59  179
   822  2.1849e-05  4.4908e-10  4.6222e-10  7.7330e-10  1.1061e-05  5.5267e-07  0:00:47  178
   823  2.1506e-05  4.4291e-10  4.5354e-10  7.5156e-10  1.1065e-05  5.1313e-07  0:01:13  177
   824  2.1806e-05  4.2858e-10  4.4218e-10  7.5802e-10  1.1060e-05  5.0743e-07  0:00:58  176
   825  2.1647e-05  4.2821e-10  4.3502e-10  7.4585e-10  1.1098e-05  5.4668e-07  0:00:46  175

  iter  continuity  x-velocity  y-velocity  z-velocity           k       omega     time/iter
   826  2.1633e-05  4.2582e-10  4.3731e-10  7.4199e-10  1.1156e-05  5.9847e-07  0:01:11  174
   827  2.1074e-05  4.2804e-10  4.5032e-10  7.2875e-10  1.1006e-05  5.9590e-07  0:00:57  173
   828  2.0676e-05  4.1689e-10  4.3409e-10  6.9888e-10  1.0767e-05  5.5718e-07  0:00:45  172
   829  2.1297e-05  4.2125e-10  4.3780e-10  7.3471e-10  1.0795e-05  5.8439e-07  0:01:10  171
   830  2.1527e-05  4.2236e-10  4.4371e-10  7.2387e-10  1.0712e-05  5.6602e-07  0:00:56  170
   831  2.1883e-05  4.4135e-10  4.4585e-10  7.6019e-10  1.0856e-05  5.7063e-07  0:00:44  169
   832  2.1939e-05  4.5463e-10  4.6277e-10  7.3876e-10  1.0856e-05  5.6218e-07  0:01:09  168
   833  2.2175e-05  4.6488e-10  4.7228e-10  7.4188e-10  1.1015e-05  5.4100e-07  0:00:55  167
   834  2.2632e-05  4.6393e-10  4.6200e-10  7.7358e-10  1.1166e-05  5.7587e-07  0:00:44  166
   835  2.3435e-05  4.6821e-10  4.7457e-10  7.7187e-10  1.1202e-05  5.5288e-07  0:01:08  165
   836  2.3036e-05  4.5897e-10  4.6813e-10  7.7809e-10  1.1237e-05  5.3405e-07  0:00:54  164

  iter  continuity  x-velocity  y-velocity  z-velocity           k       omega     time/iter
   837  2.2501e-05  4.5146e-10  4.5459e-10  7.4649e-10  1.1190e-05  5.3434e-07  0:00:43  163
   838  2.1269e-05  4.2685e-10  4.4492e-10  7.1499e-10  1.1040e-05  5.4400e-07  0:01:06  162
   839  2.1117e-05  4.1471e-10  4.3068e-10  7.1313e-10  1.0933e-05  5.3615e-07  0:00:53  161
   840  2.0671e-05  4.0678e-10  4.1513e-10  6.9223e-10  1.0651e-05  5.0486e-07  0:00:42  160
   841  2.1050e-05  3.9989e-10  4.1172e-10  7.1436e-10  1.0577e-05  5.0601e-07  0:01:05  159
   842  2.1064e-05  4.0287e-10  4.1871e-10  7.1769e-10  1.0488e-05  5.3403e-07  0:00:52  158
   843  2.1226e-05  4.1311e-10  4.0916e-10  7.3555e-10  1.0486e-05  5.6267e-07  0:00:41  157
   844  2.1030e-05  4.2548e-10  4.2996e-10  7.0102e-10  1.0340e-05  5.3839e-07  0:01:04  156
   845  2.1030e-05  4.3559e-10  4.3813e-10  7.1896e-10  1.0458e-05  5.3142e-07  0:00:51  155
   846  2.1787e-05  4.3953e-10  4.3343e-10  7.7110e-10  1.0600e-05  5.5766e-07  0:00:40  154
   847  2.2017e-05  4.4947e-10  4.5626e-10  7.6563e-10  1.0758e-05  5.5844e-07  0:01:03  153

  iter  continuity  x-velocity  y-velocity  z-velocity           k       omega     time/iter
   848  2.2020e-05  4.5052e-10  4.5447e-10  7.9189e-10  1.1038e-05  5.9569e-07  0:00:50  152
   849  2.2446e-05  4.6017e-10  4.6439e-10  7.7022e-10  1.1112e-05  5.6172e-07  0:00:40  151
   850  2.1535e-05  4.3634e-10  4.5161e-10  7.3594e-10  1.1047e-05  4.9075e-07  0:01:01  150
   851  2.1615e-05  4.2641e-10  4.3394e-10  7.3885e-10  1.1278e-05  4.9899e-07  0:01:19  149
   852  2.1630e-05  4.2085e-10  4.3069e-10  7.6043e-10  1.1487e-05  5.7126e-07  0:01:02  148
   853  2.1610e-05  4.3165e-10  4.3854e-10  7.2646e-10  1.1494e-05  5.5581e-07  0:00:50  147
   854  2.0716e-05  4.2078e-10  4.3190e-10  7.3303e-10  1.1541e-05  5.5622e-07  0:01:09  146
   855  2.0915e-05  4.2901e-10  4.3899e-10  7.2799e-10  1.1521e-05  5.7996e-07  0:00:55  145
   856  2.1182e-05  4.2716e-10  4.4085e-10  7.3801e-10  1.1451e-05  5.9070e-07  0:00:43  144
   857  2.1701e-05  4.4090e-10  4.4751e-10  7.5061e-10  1.1525e-05  5.8409e-07  0:01:03  143
   858  2.2601e-05  4.5934e-10  4.5244e-10  7.7520e-10  1.1610e-05  5.8521e-07  0:00:50  142

  iter  continuity  x-velocity  y-velocity  z-velocity           k       omega     time/iter
   859  2.2816e-05  4.7316e-10  4.6627e-10  7.8061e-10  1.1635e-05  5.7107e-07  0:00:40  141
   860  2.3841e-05  4.7973e-10  4.8287e-10  8.0950e-10  1.1606e-05  5.5758e-07  0:00:32  140
   861  2.4217e-05  4.8170e-10  4.7651e-10  7.9691e-10  1.1466e-05  5.6158e-07  0:00:53  139
   862  2.3081e-05  4.6373e-10  4.7187e-10  7.6922e-10  1.1234e-05  5.6224e-07  0:00:42  138
   863  2.2417e-05  4.5275e-10  4.5740e-10  7.6058e-10  1.1012e-05  5.3077e-07  0:00:33  137
   864  2.1676e-05  4.3153e-10  4.4047e-10  7.3086e-10  1.0798e-05  5.2016e-07  0:00:54  136
   865  2.2390e-05  4.2639e-10  4.4131e-10  7.3542e-10  1.0840e-05  5.5289e-07  0:00:43  135
   866  2.2007e-05  4.1619e-10  4.4783e-10  7.1746e-10  1.0576e-05  5.5970e-07  0:01:01  134
   867  2.1674e-05  4.0907e-10  4.2990e-10  6.9565e-10  1.0288e-05  5.3308e-07  0:00:48  133
   868  2.0889e-05  4.0088e-10  4.1404e-10  6.6154e-10  1.0112e-05  4.9954e-07  0:01:05  132
   869  2.0850e-05  4.0367e-10  4.1403e-10  6.9450e-10  1.0130e-05  5.0734e-07  0:00:51  131

  iter  continuity  x-velocity  y-velocity  z-velocity           k       omega     time/iter
   870  2.0610e-05  4.1287e-10  4.1463e-10  6.9173e-10  1.0151e-05  5.1669e-07  0:00:41  130
   871  2.0910e-05  4.2353e-10  4.3401e-10  7.1549e-10  1.0329e-05  5.2749e-07  0:00:58  129
   872  2.0692e-05  4.3141e-10  4.4407e-10  7.3198e-10  1.0435e-05  5.3583e-07  0:00:46  128
   873  2.1208e-05  4.4140e-10  4.3737e-10  7.2581e-10  1.0485e-05  5.1619e-07  0:00:37  127
   874  2.1415e-05  4.3682e-10  4.3517e-10  7.4367e-10  1.0532e-05  5.3946e-07  0:00:54  126
   875  2.2071e-05  4.4129e-10  4.4656e-10  7.5307e-10  1.0639e-05  5.3371e-07  0:00:43  125
   876  2.2096e-05  4.3585e-10  4.3617e-10  7.6081e-10  1.0639e-05  5.2963e-07  0:00:34  124
   877  2.1937e-05  4.3263e-10  4.5361e-10  7.3236e-10  1.0550e-05  4.9940e-07  0:00:27  123
   878  2.0735e-05  4.1778e-10  4.3891e-10  7.1657e-10  1.0418e-05  4.9508e-07  0:00:46  122
   879  2.0518e-05  4.1511e-10  4.2261e-10  7.1262e-10  1.0406e-05  5.4664e-07  0:00:36  121
   880  2.0497e-05  4.1246e-10  4.3108e-10  6.9722e-10  1.0303e-05  5.5256e-07  0:00:29  120

  iter  continuity  x-velocity  y-velocity  z-velocity           k       omega     time/iter
   881  2.1369e-05  4.1354e-10  4.3435e-10  7.3068e-10  1.0344e-05  5.4397e-07  0:00:47  119
   882  2.1159e-05  4.0844e-10  4.4344e-10  7.0834e-10  1.0328e-05  5.7897e-07  0:00:37  118
   883  2.1240e-05  4.1523e-10  4.4293e-10  7.2363e-10  1.0429e-05  5.9671e-07  0:00:29  117
   884  2.1917e-05  4.3354e-10  4.4214e-10  7.6225e-10  1.0454e-05  5.8433e-07  0:00:47  116
   885  2.2228e-05  4.5652e-10  4.4515e-10  7.3867e-10  1.0489e-05  5.4399e-07  0:00:37  115
   886  2.3077e-05  4.5213e-10  4.4916e-10  7.5602e-10  1.0611e-05  5.4653e-07  0:00:29  114
   887  2.2839e-05  4.5245e-10  4.5758e-10  7.5656e-10  1.0525e-05  5.2870e-07  0:00:46  113
   888  2.2725e-05  4.4889e-10  4.4830e-10  7.5111e-10  1.0544e-05  5.4701e-07  0:00:36  112
   889  2.2374e-05  4.4058e-10  4.5023e-10  7.4082e-10  1.0491e-05  5.6143e-07  0:00:29  111
   890  2.1424e-05  4.2862e-10  4.3977e-10  7.2854e-10  1.0303e-05  5.4648e-07  0:00:45  110
   891  2.1011e-05  4.1345e-10  4.1915e-10  6.9558e-10  1.0112e-05  5.3665e-07  0:00:36  109

  iter  continuity  x-velocity  y-velocity  z-velocity           k       omega     time/iter
   892  2.0569e-05  3.9286e-10  4.1770e-10  6.7984e-10  9.9530e-06  5.3119e-07  0:00:28  108
   893  2.0831e-05  3.9248e-10  4.1602e-10  6.7798e-10  9.8079e-06  5.1981e-07  0:00:44  107
   894  2.0401e-05  3.8293e-10  4.0579e-10  6.9485e-10  9.7438e-06  5.3723e-07  0:00:35  106
   895  2.0332e-05  3.8761e-10  4.0940e-10  6.6409e-10  9.5885e-06  4.9935e-07  0:00:48  105
   896  2.0120e-05  3.8560e-10  4.0285e-10  6.6594e-10  9.6052e-06  5.1117e-07  0:00:38  104
   897  2.0832e-05  3.9474e-10  4.1015e-10  7.0157e-10  9.7111e-06  5.2572e-07  0:00:30  103
   898  2.0344e-05  4.0438e-10  4.1582e-10  6.8889e-10  9.7375e-06  5.0626e-07  0:00:45  102
   899  2.0311e-05  4.1043e-10  4.3346e-10  7.2586e-10  9.8655e-06  5.2384e-07  0:00:35  101
   900  2.0885e-05  4.1750e-10  4.2841e-10  6.9988e-10  9.8902e-06  5.2649e-07  0:00:28  100
   901  2.1175e-05  4.2138e-10  4.3136e-10  7.1389e-10  1.0032e-05  5.2638e-07  0:00:42   99
   902  2.1083e-05  4.1334e-10  4.3163e-10  7.2167e-10  9.9997e-06  5.2493e-07  0:00:33   98

  iter  continuity  x-velocity  y-velocity  z-velocity           k       omega     time/iter
   903  2.0622e-05  4.1442e-10  4.1904e-10  6.9370e-10  9.9202e-06  5.0162e-07  0:00:26   97
   904  1.9887e-05  4.0202e-10  4.2159e-10  6.7835e-10  9.9166e-06  5.1678e-07  0:00:21   96
   905  2.0283e-05  4.0753e-10  4.2393e-10  6.8982e-10  9.9946e-06  5.3577e-07  0:00:35   95
   906  2.0239e-05  4.0453e-10  4.1608e-10  7.0776e-10  9.9258e-06  5.4223e-07  0:00:28   94
   907  2.0738e-05  4.0547e-10  4.2111e-10  6.8833e-10  9.9658e-06  5.4680e-07  0:00:22   93
   908  2.0798e-05  3.9872e-10  4.1558e-10  7.1698e-10  9.9910e-06  5.4509e-07  0:00:36   92
   909  2.1135e-05  4.0832e-10  4.1787e-10  7.0630e-10  1.0285e-05  5.7118e-07  0:00:28   91
   910  2.1494e-05  4.2311e-10  4.3985e-10  7.3198e-10  1.0408e-05  5.7737e-07  0:00:23   90
   911  2.1802e-05  4.2928e-10  4.4034e-10  7.3445e-10  1.0530e-05  5.4946e-07  0:00:36   89
   912  2.1582e-05  4.3564e-10  4.3823e-10  7.3485e-10  1.0685e-05  5.3959e-07  0:00:28   88
   913  2.2715e-05  4.4278e-10  4.4724e-10  7.4883e-10  1.0837e-05  5.3545e-07  0:00:22   87

  iter  continuity  x-velocity  y-velocity  z-velocity           k       omega     time/iter
   914  2.2516e-05  4.4725e-10  4.4936e-10  7.6972e-10  1.0964e-05  5.5705e-07  0:00:35   86
   915  2.2287e-05  4.5435e-10  4.6320e-10  7.7016e-10  1.0970e-05  5.7481e-07  0:00:28   85
   916  2.2134e-05  4.3565e-10  4.4896e-10  7.1032e-10  1.0679e-05  5.5211e-07  0:00:22   84
   917  2.1353e-05  4.1689e-10  4.3561e-10  7.1932e-10  1.0477e-05  5.4144e-07  0:00:34   83
   918  2.1004e-05  4.0282e-10  4.1552e-10  7.0192e-10  1.0305e-05  5.2812e-07  0:00:27   82
   919  2.1433e-05  3.9779e-10  4.1342e-10  7.3281e-10  1.0269e-05  5.5981e-07  0:00:21   81
   920  2.0989e-05  3.9301e-10  4.1758e-10  6.7679e-10  1.0081e-05  5.3717e-07  0:00:33   80
   921  2.1032e-05  3.9788e-10  4.1232e-10  7.0940e-10  1.0080e-05  5.4262e-07  0:00:26   79
   922  2.0641e-05  3.9088e-10  4.1986e-10  6.7572e-10  9.9264e-06  5.2016e-07  0:00:20   78
   923  2.0467e-05  3.9968e-10  4.0787e-10  7.0672e-10  1.0032e-05  4.9725e-07  0:00:32   77
   924  2.0450e-05  4.0216e-10  4.1311e-10  7.0653e-10  1.0234e-05  5.2657e-07  0:00:25   76

  iter  continuity  x-velocity  y-velocity  z-velocity           k       omega     time/iter
   925  2.0523e-05  4.1833e-10  4.3296e-10  7.1070e-10  1.0387e-05  5.2151e-07  0:00:20   75
   926  2.0504e-05  4.1639e-10  4.4136e-10  7.2481e-10  1.0448e-05  5.1901e-07  0:00:30   74
   927  2.0723e-05  4.1741e-10  4.4034e-10  7.3166e-10  1.0540e-05  5.1029e-07  0:00:24   73
   928  2.1069e-05  4.1821e-10  4.3710e-10  6.9726e-10  1.0826e-05  5.3755e-07  0:00:33   72
   929  2.1496e-05  4.2765e-10  4.4625e-10  7.4530e-10  1.1063e-05  5.6575e-07  0:00:26   71
   930  2.1561e-05  4.3656e-10  4.4613e-10  7.2917e-10  1.1021e-05  5.5552e-07  0:00:35   70
   931  2.1404e-05  4.2870e-10  4.4369e-10  7.3849e-10  1.1032e-05  5.4799e-07  0:00:27   69
   932  2.1468e-05  4.3067e-10  4.5302e-10  7.3927e-10  1.1008e-05  5.6542e-07  0:00:22   68
   933  2.2048e-05  4.3097e-10  4.4383e-10  7.4998e-10  1.0933e-05  5.7868e-07  0:00:30   67
   934  2.1441e-05  4.2231e-10  4.3918e-10  7.1983e-10  1.0712e-05  5.7002e-07  0:00:24   66
   935  2.1805e-05  4.2374e-10  4.3945e-10  7.3463e-10  1.0736e-05  5.5573e-07  0:00:19   65

  iter  continuity  x-velocity  y-velocity  z-velocity           k       omega     time/iter
   936  2.2253e-05  4.2514e-10  4.3599e-10  7.5147e-10  1.0706e-05  5.5794e-07  0:00:28   64
   937  2.2833e-05  4.4408e-10  4.5992e-10  7.4979e-10  1.0838e-05  5.7021e-07  0:00:22   63
   938  2.2648e-05  4.4718e-10  4.5664e-10  7.8148e-10  1.0691e-05  5.4613e-07  0:00:17   62
   939  2.3077e-05  4.5225e-10  4.5411e-10  7.6240e-10  1.0592e-05  5.2035e-07  0:00:26   61
   940  2.2524e-05  4.4517e-10  4.5507e-10  7.2952e-10  1.0449e-05  4.9411e-07  0:00:20   60
   941  2.3000e-05  4.4308e-10  4.5188e-10  7.5735e-10  1.0599e-05  5.3376e-07  0:00:16   59
   942  2.1984e-05  4.3457e-10  4.5081e-10  7.2195e-10  1.0520e-05  5.5127e-07  0:00:24   58
   943  2.1915e-05  4.2601e-10  4.4205e-10  7.2907e-10  1.0506e-05  5.7298e-07  0:00:19   57
   944  2.1309e-05  4.0768e-10  4.3083e-10  6.8376e-10  1.0388e-05  5.4872e-07  0:00:15   56
   945  2.1917e-05  4.0242e-10  4.1686e-10  7.2996e-10  1.0398e-05  5.4933e-07  0:00:23   55
   946  2.1586e-05  3.9823e-10  4.1758e-10  6.7701e-10  1.0414e-05  5.6092e-07  0:00:18   54

  iter  continuity  x-velocity  y-velocity  z-velocity           k       omega     time/iter
   947  2.1030e-05  3.9501e-10  4.1700e-10  7.2292e-10  1.0444e-05  5.7818e-07  0:00:14   53
   948  2.1597e-05  4.0388e-10  4.2280e-10  7.0385e-10  1.0309e-05  5.4960e-07  0:00:21   52
   949  2.1246e-05  4.0952e-10  4.2753e-10  7.1791e-10  1.0280e-05  5.0012e-07  0:00:17   51
   950  2.0574e-05  4.1168e-10  4.2638e-10  7.1774e-10  1.0374e-05  5.1894e-07  0:00:13   50
   951  2.0752e-05  4.2344e-10  4.3155e-10  7.2626e-10  1.0483e-05  5.4106e-07  0:00:20   49
   952  2.1045e-05  4.2985e-10  4.4447e-10  7.2772e-10  1.0535e-05  5.5446e-07  0:00:16   48
   953  2.1463e-05  4.3952e-10  4.4476e-10  7.4692e-10  1.0593e-05  5.1265e-07  0:00:12   47
   954  2.1335e-05  4.3258e-10  4.5049e-10  7.3504e-10  1.0643e-05  5.1406e-07  0:00:19   46
   955  2.1744e-05  4.3029e-10  4.5347e-10  7.3753e-10  1.0629e-05  5.4715e-07  0:00:15   45
   956  2.1722e-05  4.3054e-10  4.4777e-10  7.2223e-10  1.0535e-05  5.3573e-07  0:00:12   44
   957  2.1452e-05  4.2765e-10  4.4594e-10  7.1550e-10  1.0518e-05  5.3273e-07  0:00:18   43

  iter  continuity  x-velocity  y-velocity  z-velocity           k       omega     time/iter
   958  2.1047e-05  4.1442e-10  4.4255e-10  6.9794e-10  1.0416e-05  5.2246e-07  0:00:14   42
   959  2.0707e-05  4.1593e-10  4.5018e-10  7.1883e-10  1.0430e-05  5.4710e-07  0:00:11   41
   960  2.0762e-05  4.1336e-10  4.4270e-10  7.0776e-10  1.0455e-05  5.9395e-07  0:00:16   40
   961  2.1899e-05  4.2336e-10  4.5075e-10  7.2514e-10  1.0504e-05  5.8583e-07  0:00:13   39
   962  2.1670e-05  4.3383e-10  4.5401e-10  7.2571e-10  1.0484e-05  5.7097e-07  0:00:10   38
   963  2.2619e-05  4.4902e-10  4.5321e-10  7.4621e-10  1.0671e-05  6.0116e-07  0:00:15   37
   964  2.3100e-05  4.6086e-10  4.6463e-10  7.7325e-10  1.0640e-05  6.0350e-07  0:00:12   36
   965  2.3325e-05  4.6835e-10  4.8375e-10  7.4831e-10  1.0636e-05  5.5020e-07  0:00:09   35
   966  2.3678e-05  4.5870e-10  4.7089e-10  7.7264e-10  1.0562e-05  5.3513e-07  0:00:14   34
   967  2.2471e-05  4.4952e-10  4.6438e-10  7.3149e-10  1.0455e-05  5.1105e-07  0:00:11   33
   968  2.1003e-05  4.3350e-10  4.4341e-10  7.1441e-10  1.0318e-05  5.1169e-07  0:00:08   32

  iter  continuity  x-velocity  y-velocity  z-velocity           k       omega     time/iter
   969  2.1526e-05  4.2303e-10  4.2718e-10  7.3268e-10  1.0336e-05  5.3774e-07  0:00:13   31
   970  2.1060e-05  4.0948e-10  4.3291e-10  6.9160e-10  1.0227e-05  5.2244e-07  0:00:10   30
   971  2.0852e-05  3.9802e-10  4.1588e-10  7.0006e-10  1.0241e-05  5.1777e-07  0:00:08   29
   972  2.0598e-05  3.9067e-10  4.0485e-10  6.7752e-10  1.0218e-05  5.2388e-07  0:00:11   28
   973  2.0395e-05  3.9402e-10  4.0709e-10  6.8638e-10  1.0378e-05  5.5294e-07  0:00:09   27
   974  2.0795e-05  4.0121e-10  4.1375e-10  7.2126e-10  1.0584e-05  5.6562e-07  0:00:07   26
   975  2.0746e-05  4.1872e-10  4.2590e-10  7.0019e-10  1.0536e-05  5.0359e-07  0:00:10   25
   976  2.0298e-05  4.1893e-10  4.3609e-10  7.2070e-10  1.0663e-05  5.1038e-07  0:00:08   24
   977  2.1113e-05  4.3019e-10  4.5048e-10  7.4121e-10  1.0873e-05  5.3007e-07  0:00:06   23
   978  2.0487e-05  4.3573e-10  4.4829e-10  7.4055e-10  1.1047e-05  5.4974e-07  0:00:09   22
   979  2.1311e-05  4.4725e-10  4.5770e-10  7.5899e-10  1.1038e-05  5.4513e-07  0:00:07   21

  iter  continuity  x-velocity  y-velocity  z-velocity           k       omega     time/iter
   980  2.1608e-05  4.4415e-10  4.5642e-10  7.4099e-10  1.0928e-05  5.0337e-07  0:00:05   20
   981  2.2523e-05  4.4212e-10  4.5341e-10  7.8746e-10  1.0986e-05  5.3609e-07  0:00:08   19
   982  2.2022e-05  4.3505e-10  4.5635e-10  7.2436e-10  1.0826e-05  5.3553e-07  0:00:06   18
   983  2.0681e-05  4.2156e-10  4.3338e-10  7.1608e-10  1.0684e-05  5.3544e-07  0:00:08   17
   984  2.0993e-05  4.1475e-10  4.2346e-10  6.9923e-10  1.0474e-05  5.3959e-07  0:00:06   16
   985  2.0813e-05  4.1422e-10  4.3056e-10  7.0625e-10  1.0328e-05  5.1651e-07  0:00:07   15
   986  2.1414e-05  4.1091e-10  4.2705e-10  7.2438e-10  1.0288e-05  5.6505e-07  0:00:06   14
   987  2.0834e-05  4.1517e-10  4.4192e-10  7.0907e-10  1.0283e-05  6.0176e-07  0:00:04   13
   988  2.1276e-05  4.1752e-10  4.4043e-10  7.1817e-10  1.0286e-05  5.9091e-07  0:00:05   12
   989  2.2225e-05  4.4358e-10  4.4409e-10  7.5235e-10  1.0463e-05  5.7225e-07  0:00:04   11
   990  2.2673e-05  4.4740e-10  4.4202e-10  7.5998e-10  1.0581e-05  5.7206e-07  0:00:03   10

  iter  continuity  x-velocity  y-velocity  z-velocity           k       omega     time/iter
   991  2.3429e-05  4.5831e-10  4.5327e-10  7.5242e-10  1.0599e-05  5.4695e-07  0:00:04    9
   992  2.2550e-05  4.5182e-10  4.6674e-10  7.7006e-10  1.0612e-05  5.3686e-07  0:00:03    8
   993  2.2776e-05  4.5449e-10  4.5565e-10  7.5463e-10  1.0654e-05  5.2890e-07  0:00:02    7
   994  2.1641e-05  4.4185e-10  4.4461e-10  7.2802e-10  1.0411e-05  5.2280e-07  0:00:03    6
   995  2.1212e-05  4.2541e-10  4.3091e-10  7.1297e-10  1.0303e-05  5.1639e-07  0:00:02    5
   996  2.1001e-05  4.0677e-10  4.0684e-10  6.8000e-10  1.0286e-05  5.1764e-07  0:00:01    4
   997  2.1307e-05  3.9172e-10  4.0902e-10  6.9352e-10  1.0341e-05  5.7194e-07  0:00:01    3
   998  2.0558e-05  3.9367e-10  4.1379e-10  6.7453e-10  1.0117e-05  5.3408e-07  0:00:01    2
   999  2.0298e-05  3.9322e-10  4.0038e-10  6.8434e-10  1.0062e-05  5.5874e-07  0:00:00    1
  1000  2.0281e-05  3.9954e-10  4.1044e-10  6.5969e-10  9.9868e-06  5.6384e-07  0:00:00    0
Writing "| gzip -2cf > SolutionMonitor.gz"...
Writing temporary file C:\\Users\\icub\\AppData\\Local\\Temp\\flntgz-106802 ...
Done.

Writing data to E:\\apaolino\\automatic-cfd\\automatic_cfd_project_files\\dp0\\FLTG\\Fluent\\FLTG.82.ip ...
	x-coord
	y-coord
	z-coord
	pressure
	x-velocity
	y-velocity
	z-velocity
	k
	omega
Done.

Performance Timer for 1000 iterations on 48 compute nodes
  Average wall-clock time per iteration:                0.290 sec
  Global reductions per iteration:                         68 ops
  Global reductions time per iteration:                 0.000 sec (0.0%)
  Message count per iteration:                         110230 messages
  Data transfer per iteration:                         97.354 MB
  LE solves per iteration:                                  3 solves
  LE wall-clock time per iteration:                     0.166 sec (57.1%)
  LE global solves per iteration:                           1 solves
  LE global wall-clock time per iteration:              0.003 sec (0.9%)
  LE global matrix maximum size:                          858
  AMG cycles per iteration:                             3.995 cycles
  Relaxation sweeps per iteration:                        464 sweeps
  Relaxation exchanges per iteration:                       0 exchanges
  LE early protections (stall) per iteration:           0.000 times
  LE early protections (divergence) per iteration:      0.000 times
  Total SVARS touched:                                    371

  Total wall-clock time:                              290.215 sec

Transcript Stop Time:  17:12:31, 30 May 2023 W. Europe Daylight Time 
Total Transcript Time: 6 Minute 30 Second.
